*SPEF "IEEE 1481-1998"
*DESIGN "iir_filter"
*DATE "Sat Nov 20 18:56:53 2021"
*VENDOR "Cadence Design Systems, Inc."
*PROGRAM "Innovus"
*VERSION "17.11-s080_1"
*DESIGN_FLOW "COUPLING C" "PIN_CAP NONE" "NAME_SCOPE LOCAL"
*DIVIDER /
*DELIMITER :
*BUS_DELIMITER []
*T_UNIT 1 NS
*C_UNIT 1 PF
*R_UNIT 1 OHM
*L_UNIT 1 HENRY

// MMMC spef file for corner 'my_rc'

*NAME_MAP

*1 clock
*2 rst_n
*3 din[8]
*4 din[7]
*5 din[6]
*6 din[5]
*7 din[4]
*8 din[3]
*9 din[2]
*10 din[1]
*11 din[0]
*12 a1[8]
*13 a1[7]
*14 a1[6]
*15 a1[5]
*16 a1[4]
*17 a1[3]
*18 a1[2]
*19 a1[1]
*20 a1[0]
*21 c2[8]
*22 c2[7]
*23 c2[6]
*24 c2[5]
*25 c2[4]
*26 c2[3]
*27 c2[2]
*28 c2[1]
*29 c2[0]
*30 c3[8]
*31 c3[7]
*32 c3[6]
*33 c3[5]
*34 c3[4]
*35 c3[3]
*36 c3[2]
*37 c3[1]
*38 c3[0]
*39 b0[8]
*40 b0[7]
*41 b0[6]
*42 b0[5]
*43 b0[4]
*44 b0[3]
*45 b0[2]
*46 b0[1]
*47 b0[0]
*48 b1[8]
*49 b1[7]
*50 b1[6]
*51 b1[5]
*52 b1[4]
*53 b1[3]
*54 b1[2]
*55 b1[1]
*56 b1[0]
*57 b2[8]
*58 b2[7]
*59 b2[6]
*60 b2[5]
*61 b2[4]
*62 b2[3]
*63 b2[2]
*64 b2[1]
*65 b2[0]
*66 vin
*67 dout[8]
*68 dout[7]
*69 dout[6]
*70 dout[5]
*71 dout[4]
*72 dout[3]
*73 dout[2]
*74 dout[1]
*75 vout
*76 FE_OFN6_vin
*77 FE_OFN5_vin
*78 FE_OFN4_rst_n
*79 FE_OFN3_rst_n
*80 FE_OFN2_q_reg4_1
*81 FE_OFN1_vout_ff2
*82 FE_OFN0_vout_ff1
*83 FE_DBTN3_q_reg4_0
*84 FE_DBTN2_q_reg4_3
*85 FE_DBTN1_q_reg4_5
*86 FE_DBTN0_q_reg4_7
*87 vout_ff1
*88 vout_ff2
*89 vout_ff3
*90 N9
*91 N8
*92 N15
*93 N14
*94 N13
*95 N12
*96 N11
*97 N10
*98 N7
*99 N6
*100 N5
*101 N4
*102 N3
*103 N2
*104 N1
*105 N0
*106 reg_1_n24
*107 reg_1_n23
*108 reg_1_n22
*109 reg_1_n21
*110 reg_1_n20
*111 reg_1_n19
*112 reg_1_n18
*113 reg_1_n17
*114 reg_1_n16
*115 reg_1_n15
*116 reg_1_n14
*117 reg_1_n13
*118 reg_1_n12
*119 reg_1_n11
*120 reg_1_n10
*121 reg_1_n9
*122 reg_1_n8
*123 reg_1_n7
*124 reg_1_n6
*125 reg_1_n5
*126 reg_1_n4
*127 reg_1_n3
*128 reg_1_n2
*129 reg_1_n1
*130 reg_2_n50
*131 reg_2_n49
*132 reg_2_n48
*133 reg_2_n47
*134 reg_2_n46
*135 reg_2_n45
*136 reg_2_n44
*137 reg_2_n43
*138 reg_2_n42
*139 reg_2_n41
*140 reg_2_n40
*141 reg_2_n39
*142 reg_2_n38
*143 reg_2_n37
*144 reg_2_n36
*145 reg_2_n35
*146 reg_2_n34
*147 reg_2_n33
*148 reg_2_n32
*149 reg_2_n31
*150 reg_2_n30
*151 reg_2_n29
*152 reg_2_n28
*153 reg_2_n27
*154 reg_3_n50
*155 reg_3_n49
*156 reg_3_n48
*157 reg_3_n47
*158 reg_3_n46
*159 reg_3_n45
*160 reg_3_n44
*161 reg_3_n43
*162 reg_3_n42
*163 reg_3_n41
*164 reg_3_n40
*165 reg_3_n39
*166 reg_3_n38
*167 reg_3_n37
*168 reg_3_n36
*169 reg_3_n35
*170 reg_3_n34
*171 reg_3_n33
*172 reg_3_n32
*173 reg_3_n31
*174 reg_3_n30
*175 reg_3_n29
*176 reg_3_n28
*177 reg_3_n27
*178 reg_4_n50
*179 reg_4_n49
*180 reg_4_n48
*181 reg_4_n47
*182 reg_4_n46
*183 reg_4_n45
*184 reg_4_n44
*185 reg_4_n43
*186 reg_4_n42
*187 reg_4_n41
*188 reg_4_n40
*189 reg_4_n39
*190 reg_4_n38
*191 reg_4_n37
*192 reg_4_n36
*193 reg_4_n35
*194 reg_4_n34
*195 reg_4_n33
*196 reg_4_n32
*197 reg_4_n31
*198 reg_4_n30
*199 reg_4_n29
*200 reg_4_n28
*201 reg_4_n27
*202 reg_p2_c_n50
*203 reg_p2_c_n49
*204 reg_p2_c_n48
*205 reg_p2_c_n47
*206 reg_p2_c_n46
*207 reg_p2_c_n45
*208 reg_p2_c_n44
*209 reg_p2_c_n43
*210 reg_p2_c_n42
*211 reg_p2_c_n41
*212 reg_p2_c_n40
*213 reg_p2_c_n39
*214 reg_p2_c_n38
*215 reg_p2_c_n37
*216 reg_p2_c_n36
*217 reg_p2_c_n35
*218 reg_p2_c_n34
*219 reg_p2_c_n33
*220 reg_p2_c_n32
*221 reg_p2_c_n31
*222 reg_p2_c_n30
*223 reg_p2_c_n29
*224 reg_p2_c_n28
*225 reg_p2_c_n27
*226 reg_5_n50
*227 reg_5_n49
*228 reg_5_n48
*229 reg_5_n47
*230 reg_5_n46
*231 reg_5_n45
*232 reg_5_n44
*233 reg_5_n43
*234 reg_5_n42
*235 reg_5_n41
*236 reg_5_n40
*237 reg_5_n39
*238 reg_5_n38
*239 reg_5_n37
*240 reg_5_n36
*241 reg_5_n35
*242 reg_5_n34
*243 reg_5_n33
*244 reg_5_n32
*245 reg_5_n31
*246 reg_5_n30
*247 reg_5_n29
*248 reg_5_n28
*249 reg_5_n27
*250 reg_p2_b_n50
*251 reg_p2_b_n49
*252 reg_p2_b_n48
*253 reg_p2_b_n47
*254 reg_p2_b_n46
*255 reg_p2_b_n45
*256 reg_p2_b_n44
*257 reg_p2_b_n43
*258 reg_p2_b_n42
*259 reg_p2_b_n41
*260 reg_p2_b_n40
*261 reg_p2_b_n39
*262 reg_p2_b_n38
*263 reg_p2_b_n37
*264 reg_p2_b_n36
*265 reg_p2_b_n35
*266 reg_p2_b_n34
*267 reg_p2_b_n33
*268 reg_p2_b_n32
*269 reg_p2_b_n31
*270 reg_p2_b_n30
*271 reg_p2_b_n29
*272 reg_p2_b_n28
*273 reg_p2_b_n27
*274 reg_p2_a_n50
*275 reg_p2_a_n49
*276 reg_p2_a_n48
*277 reg_p2_a_n47
*278 reg_p2_a_n46
*279 reg_p2_a_n45
*280 reg_p2_a_n44
*281 reg_p2_a_n43
*282 reg_p2_a_n42
*283 reg_p2_a_n41
*284 reg_p2_a_n40
*285 reg_p2_a_n39
*286 reg_p2_a_n38
*287 reg_p2_a_n37
*288 reg_p2_a_n36
*289 reg_p2_a_n35
*290 reg_p2_a_n34
*291 reg_p2_a_n33
*292 reg_p2_a_n32
*293 reg_p2_a_n31
*294 reg_p2_a_n30
*295 reg_p2_a_n29
*296 reg_p2_a_n28
*297 reg_p2_a_n27
*298 reg_p3_c_n50
*299 reg_p3_c_n49
*300 reg_p3_c_n48
*301 reg_p3_c_n47
*302 reg_p3_c_n46
*303 reg_p3_c_n45
*304 reg_p3_c_n44
*305 reg_p3_c_n43
*306 reg_p3_c_n42
*307 reg_p3_c_n41
*308 reg_p3_c_n40
*309 reg_p3_c_n39
*310 reg_p3_c_n38
*311 reg_p3_c_n37
*312 reg_p3_c_n36
*313 reg_p3_c_n35
*314 reg_p3_c_n34
*315 reg_p3_c_n33
*316 reg_p3_c_n32
*317 reg_p3_c_n31
*318 reg_p3_c_n30
*319 reg_p3_c_n29
*320 reg_p3_c_n28
*321 reg_p3_c_n27
*322 reg_p3_b_n50
*323 reg_p3_b_n49
*324 reg_p3_b_n48
*325 reg_p3_b_n47
*326 reg_p3_b_n46
*327 reg_p3_b_n45
*328 reg_p3_b_n44
*329 reg_p3_b_n43
*330 reg_p3_b_n42
*331 reg_p3_b_n41
*332 reg_p3_b_n40
*333 reg_p3_b_n39
*334 reg_p3_b_n38
*335 reg_p3_b_n37
*336 reg_p3_b_n36
*337 reg_p3_b_n35
*338 reg_p3_b_n34
*339 reg_p3_b_n33
*340 reg_p3_b_n32
*341 reg_p3_b_n31
*342 reg_p3_b_n30
*343 reg_p3_b_n29
*344 reg_p3_b_n28
*345 reg_p3_b_n27
*346 reg_p3_a_n50
*347 reg_p3_a_n49
*348 reg_p3_a_n48
*349 reg_p3_a_n47
*350 reg_p3_a_n46
*351 reg_p3_a_n45
*352 reg_p3_a_n44
*353 reg_p3_a_n43
*354 reg_p3_a_n42
*355 reg_p3_a_n41
*356 reg_p3_a_n40
*357 reg_p3_a_n39
*358 reg_p3_a_n38
*359 reg_p3_a_n37
*360 reg_p3_a_n36
*361 reg_p3_a_n35
*362 reg_p3_a_n34
*363 reg_p3_a_n33
*364 reg_p3_a_n32
*365 reg_p3_a_n31
*366 reg_p3_a_n30
*367 reg_p3_a_n29
*368 reg_p3_a_n28
*369 reg_p3_a_n27
*370 reg_p1_a_n50
*371 reg_p1_a_n49
*372 reg_p1_a_n48
*373 reg_p1_a_n47
*374 reg_p1_a_n46
*375 reg_p1_a_n45
*376 reg_p1_a_n44
*377 reg_p1_a_n43
*378 reg_p1_a_n42
*379 reg_p1_a_n41
*380 reg_p1_a_n40
*381 reg_p1_a_n39
*382 reg_p1_a_n38
*383 reg_p1_a_n37
*384 reg_p1_a_n36
*385 reg_p1_a_n35
*386 reg_p1_a_n34
*387 reg_p1_a_n33
*388 reg_p1_a_n32
*389 reg_p1_a_n31
*390 reg_p1_a_n30
*391 reg_p1_a_n29
*392 reg_p1_a_n28
*393 reg_p1_a_n27
*394 reg_p1_b_n50
*395 reg_p1_b_n49
*396 reg_p1_b_n48
*397 reg_p1_b_n47
*398 reg_p1_b_n46
*399 reg_p1_b_n45
*400 reg_p1_b_n44
*401 reg_p1_b_n43
*402 reg_p1_b_n42
*403 reg_p1_b_n41
*404 reg_p1_b_n40
*405 reg_p1_b_n39
*406 reg_p1_b_n38
*407 reg_p1_b_n37
*408 reg_p1_b_n36
*409 reg_p1_b_n35
*410 reg_p1_b_n34
*411 reg_p1_b_n33
*412 reg_p1_b_n32
*413 reg_p1_b_n31
*414 reg_p1_b_n30
*415 reg_p1_b_n29
*416 reg_p1_b_n28
*417 reg_p1_b_n27
*418 ff_1_n3
*419 ff_1_n2
*420 ff_2_n5
*421 ff_2_n4
*422 ff_3_n5
*423 ff_3_n4
*424 ff_4_n5
*425 ff_4_n4
*426 reg_dout_n48
*427 reg_dout_n47
*428 reg_dout_n46
*429 reg_dout_n45
*430 reg_dout_n44
*431 reg_dout_n43
*432 reg_dout_n42
*433 reg_dout_n41
*434 reg_dout_n40
*435 reg_dout_n39
*436 reg_dout_n38
*437 reg_dout_n37
*438 reg_dout_n36
*439 reg_dout_n35
*440 reg_dout_n34
*441 reg_dout_n33
*442 reg_dout_n32
*443 reg_dout_n31
*444 reg_dout_n30
*445 reg_dout_n29
*446 reg_dout_n28
*447 reg_dout_n27
*448 reg_dout_n26
*449 reg_dout_n25
*450 add_52_n2
*451 add_1_root_add_0_root_add_58_2_n1
*452 add_0_root_add_0_root_add_58_2_n2
*453 mult_57_n252
*454 mult_57_n251
*455 mult_57_n250
*456 mult_57_n249
*457 mult_57_n248
*458 mult_57_n247
*459 mult_57_n246
*460 mult_57_n245
*461 mult_57_n244
*462 mult_57_n243
*463 mult_57_n242
*464 mult_57_n241
*465 mult_57_n240
*466 mult_57_n239
*467 mult_57_n238
*468 mult_57_n237
*469 mult_57_n236
*470 mult_57_n235
*471 mult_57_n234
*472 mult_57_n233
*473 mult_57_n232
*474 mult_57_n231
*475 mult_57_n230
*476 mult_57_n229
*477 mult_57_n228
*478 mult_57_n227
*479 mult_57_n226
*480 mult_57_n225
*481 mult_57_n224
*482 mult_57_n223
*483 mult_57_n222
*484 mult_57_n221
*485 mult_57_n220
*486 mult_57_n219
*487 mult_57_n218
*488 mult_57_n217
*489 mult_57_n216
*490 mult_57_n215
*491 mult_57_n214
*492 mult_57_n213
*493 mult_57_n212
*494 mult_57_n211
*495 mult_57_n210
*496 mult_57_n209
*497 mult_57_n208
*498 mult_57_n207
*499 mult_57_n206
*500 mult_57_n205
*501 mult_57_n204
*502 mult_57_n203
*503 mult_57_n202
*504 mult_57_n201
*505 mult_57_n200
*506 mult_57_n199
*507 mult_57_n198
*508 mult_57_n197
*509 mult_57_n196
*510 mult_57_n195
*511 mult_57_n194
*512 mult_57_n193
*513 mult_57_n192
*514 mult_57_n191
*515 mult_57_n190
*516 mult_57_n189
*517 mult_57_n188
*518 mult_57_n187
*519 mult_57_n186
*520 mult_57_n185
*521 mult_57_n184
*522 mult_57_n183
*523 mult_57_n182
*524 mult_57_n181
*525 mult_57_n90
*526 mult_57_n89
*527 mult_57_n88
*528 mult_57_n87
*529 mult_57_n84
*530 mult_57_n83
*531 mult_57_n82
*532 mult_57_n81
*533 mult_57_n80
*534 mult_57_n79
*535 mult_57_n78
*536 mult_57_n77
*537 mult_57_n76
*538 mult_57_n75
*539 mult_57_n74
*540 mult_57_n73
*541 mult_57_n71
*542 mult_57_n69
*543 mult_57_n68
*544 mult_57_n67
*545 mult_57_n66
*546 mult_57_n62
*547 mult_57_n49
*548 mult_57_n48
*549 mult_57_n47
*550 mult_57_n46
*551 mult_57_n45
*552 mult_57_n44
*553 mult_57_n43
*554 mult_57_n42
*555 mult_57_n41
*556 mult_57_n40
*557 mult_57_n39
*558 mult_57_n38
*559 mult_57_n37
*560 mult_57_n36
*561 mult_57_n35
*562 mult_57_n34
*563 mult_57_n33
*564 mult_57_n32
*565 mult_57_n30
*566 mult_57_n29
*567 mult_57_n28
*568 mult_57_n27
*569 mult_57_n26
*570 mult_57_n25
*571 mult_57_n24
*572 mult_57_n23
*573 mult_57_n22
*574 mult_57_n20
*575 mult_57_n19
*576 mult_57_n18
*577 mult_57_n17
*578 mult_57_n16
*579 mult_57_n15
*580 mult_57_n9
*581 mult_57_n8
*582 mult_57_n7
*583 mult_57_n6
*584 mult_57_n5
*585 mult_57_n4
*586 mult_57_n3
*587 mult_57_n2
*588 mult_56_n252
*589 mult_56_n251
*590 mult_56_n250
*591 mult_56_n249
*592 mult_56_n248
*593 mult_56_n247
*594 mult_56_n246
*595 mult_56_n245
*596 mult_56_n244
*597 mult_56_n243
*598 mult_56_n242
*599 mult_56_n241
*600 mult_56_n240
*601 mult_56_n239
*602 mult_56_n238
*603 mult_56_n237
*604 mult_56_n236
*605 mult_56_n235
*606 mult_56_n234
*607 mult_56_n233
*608 mult_56_n232
*609 mult_56_n231
*610 mult_56_n230
*611 mult_56_n229
*612 mult_56_n228
*613 mult_56_n227
*614 mult_56_n226
*615 mult_56_n225
*616 mult_56_n224
*617 mult_56_n223
*618 mult_56_n222
*619 mult_56_n221
*620 mult_56_n220
*621 mult_56_n219
*622 mult_56_n218
*623 mult_56_n217
*624 mult_56_n216
*625 mult_56_n215
*626 mult_56_n214
*627 mult_56_n213
*628 mult_56_n212
*629 mult_56_n211
*630 mult_56_n210
*631 mult_56_n209
*632 mult_56_n208
*633 mult_56_n207
*634 mult_56_n206
*635 mult_56_n205
*636 mult_56_n204
*637 mult_56_n203
*638 mult_56_n202
*639 mult_56_n201
*640 mult_56_n200
*641 mult_56_n199
*642 mult_56_n198
*643 mult_56_n197
*644 mult_56_n196
*645 mult_56_n195
*646 mult_56_n194
*647 mult_56_n193
*648 mult_56_n192
*649 mult_56_n191
*650 mult_56_n190
*651 mult_56_n189
*652 mult_56_n188
*653 mult_56_n187
*654 mult_56_n186
*655 mult_56_n185
*656 mult_56_n184
*657 mult_56_n183
*658 mult_56_n182
*659 mult_56_n181
*660 mult_56_n90
*661 mult_56_n89
*662 mult_56_n88
*663 mult_56_n87
*664 mult_56_n84
*665 mult_56_n83
*666 mult_56_n82
*667 mult_56_n81
*668 mult_56_n80
*669 mult_56_n79
*670 mult_56_n78
*671 mult_56_n77
*672 mult_56_n76
*673 mult_56_n75
*674 mult_56_n74
*675 mult_56_n73
*676 mult_56_n71
*677 mult_56_n69
*678 mult_56_n68
*679 mult_56_n67
*680 mult_56_n66
*681 mult_56_n62
*682 mult_56_n49
*683 mult_56_n48
*684 mult_56_n47
*685 mult_56_n46
*686 mult_56_n45
*687 mult_56_n44
*688 mult_56_n43
*689 mult_56_n42
*690 mult_56_n41
*691 mult_56_n40
*692 mult_56_n39
*693 mult_56_n38
*694 mult_56_n37
*695 mult_56_n36
*696 mult_56_n35
*697 mult_56_n34
*698 mult_56_n33
*699 mult_56_n32
*700 mult_56_n30
*701 mult_56_n29
*702 mult_56_n28
*703 mult_56_n27
*704 mult_56_n26
*705 mult_56_n25
*706 mult_56_n24
*707 mult_56_n23
*708 mult_56_n22
*709 mult_56_n20
*710 mult_56_n19
*711 mult_56_n18
*712 mult_56_n17
*713 mult_56_n16
*714 mult_56_n15
*715 mult_56_n9
*716 mult_56_n8
*717 mult_56_n7
*718 mult_56_n6
*719 mult_56_n5
*720 mult_56_n4
*721 mult_56_n3
*722 mult_56_n2
*723 mult_55_n252
*724 mult_55_n251
*725 mult_55_n250
*726 mult_55_n249
*727 mult_55_n248
*728 mult_55_n247
*729 mult_55_n246
*730 mult_55_n245
*731 mult_55_n244
*732 mult_55_n243
*733 mult_55_n242
*734 mult_55_n241
*735 mult_55_n240
*736 mult_55_n239
*737 mult_55_n238
*738 mult_55_n237
*739 mult_55_n236
*740 mult_55_n235
*741 mult_55_n234
*742 mult_55_n233
*743 mult_55_n232
*744 mult_55_n231
*745 mult_55_n230
*746 mult_55_n229
*747 mult_55_n228
*748 mult_55_n227
*749 mult_55_n226
*750 mult_55_n225
*751 mult_55_n224
*752 mult_55_n223
*753 mult_55_n222
*754 mult_55_n221
*755 mult_55_n220
*756 mult_55_n219
*757 mult_55_n218
*758 mult_55_n217
*759 mult_55_n216
*760 mult_55_n215
*761 mult_55_n214
*762 mult_55_n213
*763 mult_55_n212
*764 mult_55_n211
*765 mult_55_n210
*766 mult_55_n209
*767 mult_55_n208
*768 mult_55_n207
*769 mult_55_n206
*770 mult_55_n205
*771 mult_55_n204
*772 mult_55_n203
*773 mult_55_n202
*774 mult_55_n201
*775 mult_55_n200
*776 mult_55_n199
*777 mult_55_n198
*778 mult_55_n197
*779 mult_55_n196
*780 mult_55_n195
*781 mult_55_n194
*782 mult_55_n193
*783 mult_55_n192
*784 mult_55_n191
*785 mult_55_n190
*786 mult_55_n189
*787 mult_55_n188
*788 mult_55_n187
*789 mult_55_n186
*790 mult_55_n185
*791 mult_55_n184
*792 mult_55_n183
*793 mult_55_n182
*794 mult_55_n181
*795 mult_55_n90
*796 mult_55_n89
*797 mult_55_n88
*798 mult_55_n87
*799 mult_55_n84
*800 mult_55_n83
*801 mult_55_n82
*802 mult_55_n81
*803 mult_55_n80
*804 mult_55_n79
*805 mult_55_n78
*806 mult_55_n77
*807 mult_55_n76
*808 mult_55_n75
*809 mult_55_n74
*810 mult_55_n73
*811 mult_55_n71
*812 mult_55_n69
*813 mult_55_n68
*814 mult_55_n67
*815 mult_55_n66
*816 mult_55_n62
*817 mult_55_n49
*818 mult_55_n48
*819 mult_55_n47
*820 mult_55_n46
*821 mult_55_n45
*822 mult_55_n44
*823 mult_55_n43
*824 mult_55_n42
*825 mult_55_n41
*826 mult_55_n40
*827 mult_55_n39
*828 mult_55_n38
*829 mult_55_n37
*830 mult_55_n36
*831 mult_55_n35
*832 mult_55_n34
*833 mult_55_n33
*834 mult_55_n32
*835 mult_55_n30
*836 mult_55_n29
*837 mult_55_n28
*838 mult_55_n27
*839 mult_55_n26
*840 mult_55_n25
*841 mult_55_n24
*842 mult_55_n23
*843 mult_55_n22
*844 mult_55_n20
*845 mult_55_n19
*846 mult_55_n18
*847 mult_55_n17
*848 mult_55_n16
*849 mult_55_n15
*850 mult_55_n9
*851 mult_55_n8
*852 mult_55_n7
*853 mult_55_n6
*854 mult_55_n5
*855 mult_55_n4
*856 mult_55_n3
*857 mult_55_n2
*858 add_1_root_add_0_root_add_53_2_n1
*859 add_0_root_add_0_root_add_53_2_n1
*860 mult_50_n252
*861 mult_50_n250
*862 mult_50_n249
*863 mult_50_n248
*864 mult_50_n247
*865 mult_50_n246
*866 mult_50_n245
*867 mult_50_n244
*868 mult_50_n243
*869 mult_50_n242
*870 mult_50_n241
*871 mult_50_n240
*872 mult_50_n239
*873 mult_50_n238
*874 mult_50_n237
*875 mult_50_n236
*876 mult_50_n235
*877 mult_50_n234
*878 mult_50_n233
*879 mult_50_n232
*880 mult_50_n231
*881 mult_50_n230
*882 mult_50_n229
*883 mult_50_n228
*884 mult_50_n227
*885 mult_50_n226
*886 mult_50_n225
*887 mult_50_n224
*888 mult_50_n223
*889 mult_50_n222
*890 mult_50_n221
*891 mult_50_n220
*892 mult_50_n219
*893 mult_50_n218
*894 mult_50_n217
*895 mult_50_n216
*896 mult_50_n215
*897 mult_50_n214
*898 mult_50_n213
*899 mult_50_n212
*900 mult_50_n211
*901 mult_50_n210
*902 mult_50_n209
*903 mult_50_n208
*904 mult_50_n207
*905 mult_50_n206
*906 mult_50_n205
*907 mult_50_n203
*908 mult_50_n202
*909 mult_50_n201
*910 mult_50_n200
*911 mult_50_n199
*912 mult_50_n197
*913 mult_50_n196
*914 mult_50_n194
*915 mult_50_n193
*916 mult_50_n192
*917 mult_50_n191
*918 mult_50_n190
*919 mult_50_n188
*920 mult_50_n187
*921 mult_50_n186
*922 mult_50_n183
*923 mult_50_n182
*924 mult_50_n181
*925 mult_50_n90
*926 mult_50_n89
*927 mult_50_n88
*928 mult_50_n87
*929 mult_50_n84
*930 mult_50_n83
*931 mult_50_n82
*932 mult_50_n81
*933 mult_50_n80
*934 mult_50_n79
*935 mult_50_n78
*936 mult_50_n77
*937 mult_50_n76
*938 mult_50_n75
*939 mult_50_n74
*940 mult_50_n73
*941 mult_50_n71
*942 mult_50_n69
*943 mult_50_n68
*944 mult_50_n67
*945 mult_50_n66
*946 mult_50_n62
*947 mult_50_n49
*948 mult_50_n48
*949 mult_50_n47
*950 mult_50_n46
*951 mult_50_n45
*952 mult_50_n44
*953 mult_50_n43
*954 mult_50_n42
*955 mult_50_n41
*956 mult_50_n40
*957 mult_50_n39
*958 mult_50_n38
*959 mult_50_n37
*960 mult_50_n36
*961 mult_50_n35
*962 mult_50_n34
*963 mult_50_n33
*964 mult_50_n32
*965 mult_50_n30
*966 mult_50_n29
*967 mult_50_n28
*968 mult_50_n27
*969 mult_50_n26
*970 mult_50_n25
*971 mult_50_n24
*972 mult_50_n23
*973 mult_50_n22
*974 mult_50_n20
*975 mult_50_n19
*976 mult_50_n18
*977 mult_50_n17
*978 mult_50_n16
*979 mult_50_n15
*980 mult_50_n9
*981 mult_50_n8
*982 mult_50_n7
*983 mult_50_n6
*984 mult_50_n5
*985 mult_50_n4
*986 mult_50_n3
*987 mult_50_n2
*988 mult_51_n252
*989 mult_51_n251
*990 mult_51_n250
*991 mult_51_n249
*992 mult_51_n248
*993 mult_51_n247
*994 mult_51_n246
*995 mult_51_n245
*996 mult_51_n244
*997 mult_51_n243
*998 mult_51_n242
*999 mult_51_n241
*1000 mult_51_n240
*1001 mult_51_n239
*1002 mult_51_n238
*1003 mult_51_n237
*1004 mult_51_n236
*1005 mult_51_n235
*1006 mult_51_n234
*1007 mult_51_n233
*1008 mult_51_n232
*1009 mult_51_n231
*1010 mult_51_n230
*1011 mult_51_n229
*1012 mult_51_n228
*1013 mult_51_n227
*1014 mult_51_n226
*1015 mult_51_n225
*1016 mult_51_n224
*1017 mult_51_n223
*1018 mult_51_n222
*1019 mult_51_n221
*1020 mult_51_n220
*1021 mult_51_n219
*1022 mult_51_n218
*1023 mult_51_n217
*1024 mult_51_n216
*1025 mult_51_n215
*1026 mult_51_n214
*1027 mult_51_n213
*1028 mult_51_n212
*1029 mult_51_n211
*1030 mult_51_n210
*1031 mult_51_n209
*1032 mult_51_n208
*1033 mult_51_n207
*1034 mult_51_n206
*1035 mult_51_n205
*1036 mult_51_n204
*1037 mult_51_n203
*1038 mult_51_n202
*1039 mult_51_n201
*1040 mult_51_n200
*1041 mult_51_n199
*1042 mult_51_n197
*1043 mult_51_n196
*1044 mult_51_n194
*1045 mult_51_n193
*1046 mult_51_n192
*1047 mult_51_n191
*1048 mult_51_n190
*1049 mult_51_n188
*1050 mult_51_n187
*1051 mult_51_n186
*1052 mult_51_n185
*1053 mult_51_n183
*1054 mult_51_n182
*1055 mult_51_n181
*1056 mult_51_n90
*1057 mult_51_n89
*1058 mult_51_n88
*1059 mult_51_n87
*1060 mult_51_n84
*1061 mult_51_n83
*1062 mult_51_n82
*1063 mult_51_n81
*1064 mult_51_n80
*1065 mult_51_n79
*1066 mult_51_n78
*1067 mult_51_n77
*1068 mult_51_n76
*1069 mult_51_n75
*1070 mult_51_n74
*1071 mult_51_n73
*1072 mult_51_n71
*1073 mult_51_n69
*1074 mult_51_n68
*1075 mult_51_n67
*1076 mult_51_n66
*1077 mult_51_n62
*1078 mult_51_n49
*1079 mult_51_n48
*1080 mult_51_n47
*1081 mult_51_n46
*1082 mult_51_n45
*1083 mult_51_n44
*1084 mult_51_n43
*1085 mult_51_n42
*1086 mult_51_n41
*1087 mult_51_n40
*1088 mult_51_n39
*1089 mult_51_n38
*1090 mult_51_n37
*1091 mult_51_n36
*1092 mult_51_n35
*1093 mult_51_n34
*1094 mult_51_n33
*1095 mult_51_n32
*1096 mult_51_n30
*1097 mult_51_n29
*1098 mult_51_n28
*1099 mult_51_n27
*1100 mult_51_n26
*1101 mult_51_n25
*1102 mult_51_n24
*1103 mult_51_n23
*1104 mult_51_n22
*1105 mult_51_n20
*1106 mult_51_n19
*1107 mult_51_n18
*1108 mult_51_n17
*1109 mult_51_n16
*1110 mult_51_n15
*1111 mult_51_n9
*1112 mult_51_n8
*1113 mult_51_n7
*1114 mult_51_n6
*1115 mult_51_n5
*1116 mult_51_n4
*1117 mult_51_n3
*1118 mult_51_n2
*1119 mult_49_n184
*1120 mult_49_n183
*1121 mult_49_n182
*1122 mult_49_n181
*1123 mult_49_n180
*1124 mult_49_n179
*1125 mult_49_n178
*1126 mult_49_n177
*1127 mult_49_n176
*1128 mult_49_n175
*1129 mult_49_n174
*1130 mult_49_n173
*1131 mult_49_n172
*1132 mult_49_n171
*1133 mult_49_n170
*1134 mult_49_n169
*1135 mult_49_n168
*1136 mult_49_n167
*1137 mult_49_n166
*1138 mult_49_n165
*1139 mult_49_n164
*1140 mult_49_n163
*1141 mult_49_n162
*1142 mult_49_n119
*1143 mult_49_n118
*1144 mult_49_n117
*1145 mult_49_n116
*1146 mult_49_n115
*1147 mult_49_n113
*1148 mult_49_n112
*1149 mult_49_n111
*1150 mult_49_n110
*1151 mult_49_n109
*1152 mult_49_n108
*1153 mult_49_n106
*1154 mult_49_n105
*1155 mult_49_n104
*1156 mult_49_n103
*1157 mult_49_n102
*1158 mult_49_n101
*1159 mult_49_n100
*1160 mult_49_n99
*1161 mult_49_n98
*1162 mult_49_n97
*1163 mult_49_n95
*1164 mult_49_n94
*1165 mult_49_n93
*1166 mult_49_n92
*1167 mult_49_n91
*1168 mult_49_n90
*1169 mult_49_n89
*1170 mult_49_n88
*1171 mult_49_n87
*1172 mult_49_n86
*1173 mult_49_n85
*1174 mult_49_n83
*1175 mult_49_n82
*1176 mult_49_n81
*1177 mult_49_n80
*1178 mult_49_n79
*1179 mult_49_n78
*1180 mult_49_n77
*1181 mult_49_n76
*1182 mult_49_n75
*1183 mult_49_n74
*1184 mult_49_n73
*1185 mult_49_n72
*1186 mult_49_n71
*1187 mult_49_n70
*1188 mult_49_n69
*1189 mult_49_n68
*1190 mult_49_n67
*1191 mult_49_n66
*1192 mult_49_n65
*1193 mult_49_n64
*1194 mult_49_n63
*1195 mult_49_n62
*1196 mult_49_n61
*1197 mult_49_n60
*1198 mult_49_n59
*1199 mult_49_n58
*1200 mult_49_n57
*1201 mult_49_n56
*1202 mult_49_n55
*1203 mult_49_n54
*1204 mult_49_n53
*1205 mult_49_n52
*1206 mult_49_n51
*1207 mult_49_n50
*1208 mult_49_n49
*1209 mult_49_n48
*1210 mult_49_n47
*1211 mult_49_n46
*1212 mult_49_n45
*1213 mult_49_n44
*1214 mult_49_n43
*1215 mult_49_n42
*1216 mult_49_n41
*1217 mult_49_n40
*1218 mult_49_n39
*1219 mult_49_n38
*1220 mult_49_n37
*1221 mult_49_n36
*1222 mult_49_n35
*1223 mult_49_n34
*1224 mult_49_n33
*1225 mult_49_n32
*1226 mult_49_n31
*1227 mult_49_n30
*1228 mult_49_n29
*1229 mult_49_n28
*1230 mult_49_n27
*1231 mult_49_n26
*1232 mult_49_n25
*1233 mult_49_n24
*1234 mult_49_n23
*1235 mult_49_n22
*1236 mult_49_n21
*1237 mult_49_n20
*1238 mult_49_n19
*1239 mult_49_n18
*1240 mult_49_n17
*1241 mult_49_n16
*1242 mult_49_n15
*1243 mult_49_n14
*1244 mult_49_n13
*1245 mult_49_n8
*1246 mult_49_n7
*1247 mult_49_n6
*1248 mult_49_n5
*1249 mult_49_n4
*1250 mult_49_n3
*1251 mult_49_n2
*1252 mult_49_n1
*1253 TMP_a1[13]
*1254 TMP_a1[12]
*1255 TMP_a1[11]
*1256 TMP_a1[10]
*1257 TMP_a1[9]
*1258 TMP_a1[8]
*1259 TMP_a1[7]
*1260 TMP_a1[6]
*1261 TMPq4_c3[13]
*1262 TMPq4_c3[12]
*1263 TMPq4_c3[11]
*1264 TMPq4_c3[10]
*1265 TMPq4_c3[9]
*1266 TMPq4_c3[8]
*1267 TMPq4_c3[7]
*1268 TMPq4_c3[6]
*1269 TMPq2_c2[13]
*1270 TMPq2_c2[12]
*1271 TMPq2_c2[11]
*1272 TMPq2_c2[10]
*1273 TMPq2_c2[9]
*1274 TMPq2_c2[8]
*1275 TMPq2_c2[7]
*1276 TMPq2_c2[6]
*1277 TMP_reg1[7]
*1278 TMP_reg1[6]
*1279 TMP_reg1[5]
*1280 TMP_reg1[4]
*1281 TMP_reg1[3]
*1282 TMP_reg1[2]
*1283 TMP_reg1[1]
*1284 TMP_reg1[0]
*1285 TMPa[7]
*1286 TMPa[6]
*1287 TMPa[5]
*1288 TMPa[4]
*1289 TMPa[3]
*1290 TMPa[2]
*1291 TMPa[1]
*1292 TMPa[0]
*1293 TMPq8_b0[13]
*1294 TMPq8_b0[12]
*1295 TMPq8_b0[11]
*1296 TMPq8_b0[10]
*1297 TMPq8_b0[9]
*1298 TMPq8_b0[8]
*1299 TMPq8_b0[7]
*1300 TMPq8_b0[6]
*1301 TMPq7_b1[13]
*1302 TMPq7_b1[12]
*1303 TMPq7_b1[11]
*1304 TMPq7_b1[10]
*1305 TMPq7_b1[9]
*1306 TMPq7_b1[8]
*1307 TMPq7_b1[7]
*1308 TMPq7_b1[6]
*1309 TMPq5_b2[13]
*1310 TMPq5_b2[12]
*1311 TMPq5_b2[11]
*1312 TMPq5_b2[10]
*1313 TMPq5_b2[9]
*1314 TMPq5_b2[8]
*1315 TMPq5_b2[7]
*1316 TMPq5_b2[6]
*1317 TMPb[7]
*1318 TMPb[6]
*1319 TMPb[5]
*1320 TMPb[4]
*1321 TMPb[3]
*1322 TMPb[2]
*1323 TMPb[1]
*1324 TMPb[0]
*1325 q_reg1[7]
*1326 q_reg1[6]
*1327 q_reg1[5]
*1328 q_reg1[4]
*1329 q_reg1[3]
*1330 q_reg1[2]
*1331 q_reg1[1]
*1332 q_reg1[0]
*1333 q_reg2[7]
*1334 q_reg2[6]
*1335 q_reg2[5]
*1336 q_reg2[4]
*1337 q_reg2[3]
*1338 q_reg2[2]
*1339 q_reg2[1]
*1340 q_reg2[0]
*1341 q_reg3[7]
*1342 q_reg3[6]
*1343 q_reg3[5]
*1344 q_reg3[4]
*1345 q_reg3[3]
*1346 q_reg3[2]
*1347 q_reg3[1]
*1348 q_reg3[0]
*1349 q_reg4[7]
*1350 q_reg4[6]
*1351 q_reg4[5]
*1352 q_reg4[4]
*1353 q_reg4[3]
*1354 q_reg4[2]
*1355 q_reg4[1]
*1356 q_reg4[0]
*1357 q_reg6[7]
*1358 q_reg6[6]
*1359 q_reg6[5]
*1360 q_reg6[4]
*1361 q_reg6[3]
*1362 q_reg6[2]
*1363 q_reg6[1]
*1364 q_reg6[0]
*1365 q_reg5[7]
*1366 q_reg5[6]
*1367 q_reg5[5]
*1368 q_reg5[4]
*1369 q_reg5[3]
*1370 q_reg5[2]
*1371 q_reg5[1]
*1372 q_reg5[0]
*1373 q_reg7[7]
*1374 q_reg7[6]
*1375 q_reg7[5]
*1376 q_reg7[4]
*1377 q_reg7[3]
*1378 q_reg7[2]
*1379 q_reg7[1]
*1380 q_reg7[0]
*1381 q_reg8[7]
*1382 q_reg8[6]
*1383 q_reg8[5]
*1384 q_reg8[4]
*1385 q_reg8[3]
*1386 q_reg8[2]
*1387 q_reg8[1]
*1388 q_reg8[0]
*1389 q_reg9[7]
*1390 q_reg9[6]
*1391 q_reg9[5]
*1392 q_reg9[4]
*1393 q_reg9[3]
*1394 q_reg9[2]
*1395 q_reg9[1]
*1396 q_reg9[0]
*1397 q_reg10[7]
*1398 q_reg10[6]
*1399 q_reg10[5]
*1400 q_reg10[4]
*1401 q_reg10[3]
*1402 q_reg10[2]
*1403 q_reg10[1]
*1404 q_reg10[0]
*1405 q_reg11[7]
*1406 q_reg11[6]
*1407 q_reg11[5]
*1408 q_reg11[4]
*1409 q_reg11[3]
*1410 q_reg11[2]
*1411 q_reg11[1]
*1412 q_reg11[0]
*1413 q_reg12[7]
*1414 q_reg12[6]
*1415 q_reg12[5]
*1416 q_reg12[4]
*1417 q_reg12[3]
*1418 q_reg12[2]
*1419 q_reg12[1]
*1420 q_reg12[0]
*1421 q_reg13[7]
*1422 q_reg13[6]
*1423 q_reg13[5]
*1424 q_reg13[4]
*1425 q_reg13[3]
*1426 q_reg13[2]
*1427 q_reg13[1]
*1428 q_reg13[0]
*1429 add_52_carry[7]
*1430 add_52_carry[6]
*1431 add_52_carry[5]
*1432 add_52_carry[4]
*1433 add_52_carry[3]
*1434 add_52_carry[2]
*1435 add_1_root_add_0_root_add_58_2_carry[7]
*1436 add_1_root_add_0_root_add_58_2_carry[6]
*1437 add_1_root_add_0_root_add_58_2_carry[5]
*1438 add_1_root_add_0_root_add_58_2_carry[4]
*1439 add_1_root_add_0_root_add_58_2_carry[3]
*1440 add_1_root_add_0_root_add_58_2_carry[2]
*1441 add_0_root_add_0_root_add_58_2_carry[7]
*1442 add_0_root_add_0_root_add_58_2_carry[6]
*1443 add_0_root_add_0_root_add_58_2_carry[5]
*1444 add_0_root_add_0_root_add_58_2_carry[4]
*1445 add_0_root_add_0_root_add_58_2_carry[3]
*1446 add_0_root_add_0_root_add_58_2_carry[2]
*1447 add_1_root_add_0_root_add_53_2_carry[7]
*1448 add_1_root_add_0_root_add_53_2_carry[6]
*1449 add_1_root_add_0_root_add_53_2_carry[5]
*1450 add_1_root_add_0_root_add_53_2_carry[4]
*1451 add_1_root_add_0_root_add_53_2_carry[3]
*1452 add_1_root_add_0_root_add_53_2_carry[2]
*1453 add_0_root_add_0_root_add_53_2_carry[7]
*1454 add_0_root_add_0_root_add_53_2_carry[6]
*1455 add_0_root_add_0_root_add_53_2_carry[5]
*1456 add_0_root_add_0_root_add_53_2_carry[4]
*1457 add_0_root_add_0_root_add_53_2_carry[3]
*1458 add_0_root_add_0_root_add_53_2_carry[2]
*1459 dout[0]
*1460 FE_RC_21_0
*1461 FE_RC_20_0
*1462 FE_RC_19_0
*1463 FE_RC_18_0
*1464 FE_RC_17_0
*1465 FE_RC_16_0
*1466 FE_RC_15_0
*1467 FE_RC_13_0
*1468 FE_RC_12_0
*1469 FE_RC_11_0
*1470 FE_RC_10_0
*1471 FE_RC_9_0
*1472 FE_RC_8_0
*1473 FE_RC_7_0
*1474 FE_RC_6_0
*1475 FE_RC_5_0
*1476 FE_RC_4_0
*1477 FE_RC_3_0
*1478 FE_OFC6_vin
*1479 FE_OFC5_vin
*1480 FE_OFC4_rst_n
*1481 FE_OFC3_rst_n
*1482 FE_OFC2_q_reg4_1
*1483 FE_OFC1_vout_ff2
*1484 FE_OFC0_vout_ff1
*1485 FE_DBTC3_q_reg4_0
*1486 FE_DBTC2_q_reg4_3
*1487 FE_DBTC1_q_reg4_5
*1488 FE_DBTC0_q_reg4_7
*1489 reg_1_U19
*1490 reg_1_U18
*1491 reg_1_U17
*1492 reg_1_U16
*1493 reg_1_U15
*1494 reg_1_U14
*1495 reg_1_U13
*1496 reg_1_U12
*1497 reg_1_U11
*1498 reg_1_U10
*1499 reg_1_U9
*1500 reg_1_U8
*1501 reg_1_U5
*1502 reg_1_U4
*1503 reg_1_U3
*1504 reg_1_U2
*1505 reg_1_Q_reg_0_
*1506 reg_1_Q_reg_1_
*1507 reg_1_Q_reg_2_
*1508 reg_1_Q_reg_3_
*1509 reg_1_Q_reg_4_
*1510 reg_1_Q_reg_5_
*1511 reg_1_Q_reg_6_
*1512 reg_1_Q_reg_7_
*1513 reg_2_U17
*1514 reg_2_U16
*1515 reg_2_U15
*1516 reg_2_U14
*1517 reg_2_U13
*1518 reg_2_U12
*1519 reg_2_U11
*1520 reg_2_U10
*1521 reg_2_U9
*1522 reg_2_U8
*1523 reg_2_U7
*1524 reg_2_U6
*1525 reg_2_U5
*1526 reg_2_U4
*1527 reg_2_U3
*1528 reg_2_U2
*1529 reg_2_Q_reg_0_
*1530 reg_2_Q_reg_1_
*1531 reg_2_Q_reg_2_
*1532 reg_2_Q_reg_3_
*1533 reg_2_Q_reg_4_
*1534 reg_2_Q_reg_5_
*1535 reg_2_Q_reg_6_
*1536 reg_2_Q_reg_7_
*1537 reg_3_U17
*1538 reg_3_U16
*1539 reg_3_U15
*1540 reg_3_U14
*1541 reg_3_U13
*1542 reg_3_U12
*1543 reg_3_U11
*1544 reg_3_U10
*1545 reg_3_U9
*1546 reg_3_U8
*1547 reg_3_U7
*1548 reg_3_U6
*1549 reg_3_U5
*1550 reg_3_U4
*1551 reg_3_U3
*1552 reg_3_U2
*1553 reg_3_Q_reg_0_
*1554 reg_3_Q_reg_1_
*1555 reg_3_Q_reg_2_
*1556 reg_3_Q_reg_3_
*1557 reg_3_Q_reg_4_
*1558 reg_3_Q_reg_5_
*1559 reg_3_Q_reg_6_
*1560 reg_3_Q_reg_7_
*1561 reg_4_U19
*1562 reg_4_U18
*1563 reg_4_U17
*1564 reg_4_U16
*1565 reg_4_U15
*1566 reg_4_U14
*1567 reg_4_U13
*1568 reg_4_U12
*1569 reg_4_U9
*1570 reg_4_U8
*1571 reg_4_U7
*1572 reg_4_U6
*1573 reg_4_U5
*1574 reg_4_U4
*1575 reg_4_U3
*1576 reg_4_U2
*1577 reg_4_Q_reg_0_
*1578 reg_4_Q_reg_1_
*1579 reg_4_Q_reg_2_
*1580 reg_4_Q_reg_3_
*1581 reg_4_Q_reg_4_
*1582 reg_4_Q_reg_5_
*1583 reg_4_Q_reg_6_
*1584 reg_4_Q_reg_7_
*1585 reg_p2_c_U19
*1586 reg_p2_c_U18
*1587 reg_p2_c_U17
*1588 reg_p2_c_U16
*1589 reg_p2_c_U15
*1590 reg_p2_c_U14
*1591 reg_p2_c_U13
*1592 reg_p2_c_U12
*1593 reg_p2_c_U11
*1594 reg_p2_c_U10
*1595 reg_p2_c_U9
*1596 reg_p2_c_U8
*1597 reg_p2_c_U7
*1598 reg_p2_c_U6
*1599 reg_p2_c_U5
*1600 reg_p2_c_U4
*1601 reg_p2_c_Q_reg_0_
*1602 reg_p2_c_Q_reg_1_
*1603 reg_p2_c_Q_reg_2_
*1604 reg_p2_c_Q_reg_3_
*1605 reg_p2_c_Q_reg_4_
*1606 reg_p2_c_Q_reg_5_
*1607 reg_p2_c_Q_reg_6_
*1608 reg_p2_c_Q_reg_7_
*1609 reg_5_U19
*1610 reg_5_U18
*1611 reg_5_U17
*1612 reg_5_U16
*1613 reg_5_U15
*1614 reg_5_U14
*1615 reg_5_U13
*1616 reg_5_U12
*1617 reg_5_U11
*1618 reg_5_U10
*1619 reg_5_U9
*1620 reg_5_U8
*1621 reg_5_U7
*1622 reg_5_U6
*1623 reg_5_U5
*1624 reg_5_U4
*1625 reg_5_Q_reg_0_
*1626 reg_5_Q_reg_1_
*1627 reg_5_Q_reg_2_
*1628 reg_5_Q_reg_3_
*1629 reg_5_Q_reg_4_
*1630 reg_5_Q_reg_5_
*1631 reg_5_Q_reg_6_
*1632 reg_5_Q_reg_7_
*1633 reg_p2_b_U19
*1634 reg_p2_b_U18
*1635 reg_p2_b_U17
*1636 reg_p2_b_U16
*1637 reg_p2_b_U15
*1638 reg_p2_b_U14
*1639 reg_p2_b_U13
*1640 reg_p2_b_U12
*1641 reg_p2_b_U11
*1642 reg_p2_b_U10
*1643 reg_p2_b_U9
*1644 reg_p2_b_U8
*1645 reg_p2_b_U7
*1646 reg_p2_b_U6
*1647 reg_p2_b_U5
*1648 reg_p2_b_U4
*1649 reg_p2_b_Q_reg_0_
*1650 reg_p2_b_Q_reg_1_
*1651 reg_p2_b_Q_reg_2_
*1652 reg_p2_b_Q_reg_3_
*1653 reg_p2_b_Q_reg_4_
*1654 reg_p2_b_Q_reg_5_
*1655 reg_p2_b_Q_reg_6_
*1656 reg_p2_b_Q_reg_7_
*1657 reg_p2_a_U19
*1658 reg_p2_a_U18
*1659 reg_p2_a_U17
*1660 reg_p2_a_U16
*1661 reg_p2_a_U15
*1662 reg_p2_a_U14
*1663 reg_p2_a_U13
*1664 reg_p2_a_U12
*1665 reg_p2_a_U9
*1666 reg_p2_a_U8
*1667 reg_p2_a_U7
*1668 reg_p2_a_U6
*1669 reg_p2_a_U5
*1670 reg_p2_a_U4
*1671 reg_p2_a_U3
*1672 reg_p2_a_U2
*1673 reg_p2_a_Q_reg_0_
*1674 reg_p2_a_Q_reg_1_
*1675 reg_p2_a_Q_reg_2_
*1676 reg_p2_a_Q_reg_3_
*1677 reg_p2_a_Q_reg_4_
*1678 reg_p2_a_Q_reg_5_
*1679 reg_p2_a_Q_reg_6_
*1680 reg_p2_a_Q_reg_7_
*1681 reg_p3_c_U17
*1682 reg_p3_c_U16
*1683 reg_p3_c_U15
*1684 reg_p3_c_U14
*1685 reg_p3_c_U13