*SPEF "IEEE 1481-1998"
*DESIGN "iir_filter"
*DATE "Wed Nov 17 23:16:23 2021"
*VENDOR "Cadence Design Systems, Inc."
*PROGRAM "Innovus"
*VERSION "17.11-s080_1"
*DESIGN_FLOW "COUPLING C" "PIN_CAP NONE" "NAME_SCOPE LOCAL"
*DIVIDER /
*DELIMITER :
*BUS_DELIMITER []
*T_UNIT 1 NS
*C_UNIT 1 PF
*R_UNIT 1 OHM
*L_UNIT 1 HENRY

// MMMC spef file for corner 'my_rc'

*NAME_MAP

*1 FE_DBTN13_q_reg1_0
*2 FE_DBTN12_q_reg1_1
*3 FE_DBTN11_q_reg1_2
*4 FE_DBTN10_q_reg1_3
*5 FE_DBTN9_q_reg1_4
*6 FE_DBTN8_q_reg1_5
*7 FE_DBTN7_q_reg1_6
*8 FE_DBTN6_q_reg2_0
*9 FE_DBTN5_q_reg2_1
*10 FE_DBTN4_q_reg2_2
*11 FE_DBTN3_q_reg2_3
*12 FE_DBTN2_q_reg2_4
*13 FE_DBTN1_q_reg2_5
*14 FE_DBTN0_q_reg2_6
*15 din[8]
*16 din[7]
*17 din[6]
*18 din[5]
*19 din[4]
*20 din[3]
*21 din[2]
*22 din[1]
*23 din[0]
*24 a1[8]
*25 a1[7]
*26 a1[6]
*27 a1[5]
*28 a1[4]
*29 a1[3]
*30 a1[2]
*31 a1[1]
*32 a1[0]
*33 a2[8]
*34 a2[7]
*35 a2[6]
*36 a2[5]
*37 a2[4]
*38 a2[3]
*39 a2[2]
*40 a2[1]
*41 a2[0]
*42 b0[8]
*43 b0[7]
*44 b0[6]
*45 b0[5]
*46 b0[4]
*47 b0[3]
*48 b0[2]
*49 b0[1]
*50 b0[0]
*51 b1[8]
*52 b1[7]
*53 b1[6]
*54 b1[5]
*55 b1[4]
*56 b1[3]
*57 b1[2]
*58 b1[1]
*59 b1[0]
*60 b2[8]
*61 b2[7]
*62 b2[6]
*63 b2[5]
*64 b2[4]
*65 b2[3]
*66 b2[2]
*67 b2[1]
*68 b2[0]
*69 dout[8]
*70 dout[7]
*71 dout[6]
*72 dout[5]
*73 dout[4]
*74 dout[3]
*75 dout[2]
*76 dout[1]
*77 clock
*78 rst_n
*79 vin
*80 vout
*81 TMPtmpa_b0_9_
*82 TMPtmpa_b0_8_
*83 TMPtmpa_b0_7_
*84 TMPtmpa_b0_6_
*85 TMPtmpa_b0_13_
*86 TMPtmpa_b0_12_
*87 TMPtmpa_b0_11_
*88 TMPtmpa_b0_10_
*89 TMPq2_b2_9_
*90 TMPq2_b2_8_
*91 TMPq2_b2_7_
*92 TMPq2_b2_6_
*93 TMPq2_b2_13_
*94 TMPq2_b2_12_
*95 TMPq2_b2_11_
*96 TMPq2_b2_10_
*97 TMPq1_b1_9_
*98 TMPq1_b1_8_
*99 TMPq1_b1_7_
*100 TMPq1_b1_6_
*101 TMPq1_b1_13_
*102 TMPq1_b1_12_
*103 TMPq1_b1_11_
*104 TMPq1_b1_10_
*105 N9
*106 N8
*107 N15
*108 N14
*109 N13
*110 N12
*111 N11
*112 N10
*113 TMPq2_a2_9_
*114 TMPq2_a2_8_
*115 TMPq2_a2_7_
*116 TMPq2_a2_6_
*117 TMPq2_a2_13_
*118 TMPq2_a2_12_
*119 TMPq2_a2_11_
*120 TMPq2_a2_10_
*121 TMPq1_a1_9_
*122 TMPq1_a1_8_
*123 TMPq1_a1_7_
*124 TMPq1_a1_6_
*125 TMPq1_a1_13_
*126 TMPq1_a1_12_
*127 TMPq1_a1_11_
*128 TMPq1_a1_10_
*129 N7
*130 N6
*131 N5
*132 N4
*133 N3
*134 N2
*135 N1
*136 N0
*137 reg_1_n24
*138 reg_1_n23
*139 reg_1_n22
*140 reg_1_n21
*141 reg_1_n20
*142 reg_1_n19
*143 reg_1_n18
*144 reg_1_n17
*145 reg_1_n16
*146 reg_1_n15
*147 reg_1_n14
*148 reg_1_n13
*149 reg_1_n12
*150 reg_1_n11
*151 reg_1_n10
*152 reg_1_n9
*153 reg_1_n8
*154 reg_1_n7
*155 reg_1_n6
*156 reg_1_n5
*157 reg_1_n4
*158 reg_1_n3
*159 reg_1_n2
*160 reg_1_n1
*161 reg_2_n50
*162 reg_2_n49
*163 reg_2_n48
*164 reg_2_n47
*165 reg_2_n46
*166 reg_2_n45
*167 reg_2_n44
*168 reg_2_n43
*169 reg_2_n42
*170 reg_2_n41
*171 reg_2_n40
*172 reg_2_n39
*173 reg_2_n38
*174 reg_2_n37
*175 reg_2_n36
*176 reg_2_n35
*177 reg_2_n34
*178 reg_2_n33
*179 reg_2_n32
*180 reg_2_n31
*181 reg_2_n30
*182 reg_2_n29
*183 reg_2_n28
*184 reg_2_n27
*185 reg_dout_n50
*186 reg_dout_n49
*187 reg_dout_n48
*188 reg_dout_n47
*189 reg_dout_n46
*190 reg_dout_n45
*191 reg_dout_n44
*192 reg_dout_n43
*193 reg_dout_n42
*194 reg_dout_n41
*195 reg_dout_n40
*196 reg_dout_n39
*197 reg_dout_n38
*198 reg_dout_n37
*199 reg_dout_n36
*200 reg_dout_n35
*201 reg_dout_n34
*202 reg_dout_n33
*203 reg_dout_n32
*204 reg_dout_n31
*205 reg_dout_n30
*206 reg_dout_n29
*207 reg_dout_n28
*208 reg_dout_n27
*209 ff_1_n3
*210 ff_1_n2
*211 ff_1_n1
*212 mult_54_n208
*213 mult_54_n207
*214 mult_54_n206
*215 mult_54_n205
*216 mult_54_n204
*217 mult_54_n203
*218 mult_54_n202
*219 mult_54_n201
*220 mult_54_n200
*221 mult_54_n199
*222 mult_54_n198
*223 mult_54_n197
*224 mult_54_n196
*225 mult_54_n195
*226 mult_54_n194
*227 mult_54_n193
*228 mult_54_n192
*229 mult_54_n191
*230 mult_54_n190
*231 mult_54_n189
*232 mult_54_n188
*233 mult_54_n187
*234 mult_54_n186
*235 mult_54_n185
*236 mult_54_n184
*237 mult_54_n183
*238 mult_54_n182
*239 mult_54_n138
*240 mult_54_n137
*241 mult_54_n136
*242 mult_54_n135
*243 mult_54_n133
*244 mult_54_n131
*245 mult_54_n130
*246 mult_54_n129
*247 mult_54_n128
*248 mult_54_n127
*249 mult_54_n126
*250 mult_54_n125
*251 mult_54_n123
*252 mult_54_n122
*253 mult_54_n121
*254 mult_54_n120
*255 mult_54_n119
*256 mult_54_n118
*257 mult_54_n117
*258 mult_54_n116
*259 mult_54_n115
*260 mult_54_n114
*261 mult_54_n113
*262 mult_54_n112
*263 mult_54_n111
*264 mult_54_n110
*265 mult_54_n109
*266 mult_54_n108
*267 mult_54_n107
*268 mult_54_n105
*269 mult_54_n104
*270 mult_54_n103
*271 mult_54_n102
*272 mult_54_n101
*273 mult_54_n100
*274 mult_54_n99
*275 mult_54_n98
*276 mult_54_n97
*277 mult_54_n96
*278 mult_54_n95
*279 mult_54_n94
*280 mult_54_n93
*281 mult_54_n92
*282 mult_54_n91
*283 mult_54_n90
*284 mult_54_n89
*285 mult_54_n88
*286 mult_54_n87
*287 mult_54_n85
*288 mult_54_n84
*289 mult_54_n83
*290 mult_54_n82
*291 mult_54_n81
*292 mult_54_n80
*293 mult_54_n79
*294 mult_54_n78
*295 mult_54_n77
*296 mult_54_n76
*297 mult_54_n75
*298 mult_54_n74
*299 mult_54_n73
*300 mult_54_n72
*301 mult_54_n71
*302 mult_54_n70
*303 mult_54_n69
*304 mult_54_n68
*305 mult_54_n67
*306 mult_54_n66
*307 mult_54_n65
*308 mult_54_n64
*309 mult_54_n63
*310 mult_54_n62
*311 mult_54_n61
*312 mult_54_n60
*313 mult_54_n59
*314 mult_54_n58
*315 mult_54_n57
*316 mult_54_n56
*317 mult_54_n55
*318 mult_54_n53
*319 mult_54_n52
*320 mult_54_n51
*321 mult_54_n50
*322 mult_54_n49
*323 mult_54_n48
*324 mult_54_n47
*325 mult_54_n46
*326 mult_54_n45
*327 mult_54_n44
*328 mult_54_n43
*329 mult_54_n42
*330 mult_54_n41
*331 mult_54_n40
*332 mult_54_n39
*333 mult_54_n38
*334 mult_54_n37
*335 mult_54_n36
*336 mult_54_n35
*337 mult_54_n34
*338 mult_54_n33
*339 mult_54_n32
*340 mult_54_n31
*341 mult_54_n30
*342 mult_54_n29
*343 mult_54_n28
*344 mult_54_n27
*345 mult_54_n26
*346 mult_54_n25
*347 mult_54_n24
*348 mult_54_n23
*349 mult_54_n22
*350 mult_54_n21
*351 mult_54_n20
*352 mult_54_n19
*353 mult_54_n18
*354 mult_54_n17
*355 mult_54_n16
*356 mult_54_n15
*357 mult_54_n14
*358 mult_54_n9
*359 mult_54_n8
*360 mult_54_n7
*361 mult_54_n6
*362 mult_54_n5
*363 mult_54_n4
*364 mult_54_n3
*365 mult_54_n2
*366 mult_55_n208
*367 mult_55_n207
*368 mult_55_n206
*369 mult_55_n205
*370 mult_55_n204
*371 mult_55_n203
*372 mult_55_n202
*373 mult_55_n201
*374 mult_55_n200
*375 mult_55_n199
*376 mult_55_n198
*377 mult_55_n197
*378 mult_55_n196
*379 mult_55_n195
*380 mult_55_n194
*381 mult_55_n191
*382 mult_55_n189
*383 mult_55_n187
*384 mult_55_n186
*385 mult_55_n183
*386 mult_55_n138
*387 mult_55_n137
*388 mult_55_n136
*389 mult_55_n135
*390 mult_55_n133
*391 mult_55_n131
*392 mult_55_n130
*393 mult_55_n129
*394 mult_55_n128
*395 mult_55_n127
*396 mult_55_n126
*397 mult_55_n125
*398 mult_55_n123
*399 mult_55_n122
*400 mult_55_n121
*401 mult_55_n120
*402 mult_55_n119
*403 mult_55_n118
*404 mult_55_n117
*405 mult_55_n116
*406 mult_55_n115
*407 mult_55_n114
*408 mult_55_n113
*409 mult_55_n112
*410 mult_55_n111
*411 mult_55_n110
*412 mult_55_n109
*413 mult_55_n108
*414 mult_55_n107
*415 mult_55_n105
*416 mult_55_n104
*417 mult_55_n103
*418 mult_55_n102
*419 mult_55_n101
*420 mult_55_n100
*421 mult_55_n99
*422 mult_55_n98
*423 mult_55_n97
*424 mult_55_n96
*425 mult_55_n95
*426 mult_55_n94
*427 mult_55_n93
*428 mult_55_n92
*429 mult_55_n91
*430 mult_55_n90
*431 mult_55_n89
*432 mult_55_n88
*433 mult_55_n87
*434 mult_55_n85
*435 mult_55_n84
*436 mult_55_n83
*437 mult_55_n82
*438 mult_55_n81
*439 mult_55_n80
*440 mult_55_n79
*441 mult_55_n78
*442 mult_55_n77
*443 mult_55_n76
*444 mult_55_n75
*445 mult_55_n74
*446 mult_55_n73
*447 mult_55_n72
*448 mult_55_n71
*449 mult_55_n70
*450 mult_55_n69
*451 mult_55_n68
*452 mult_55_n67
*453 mult_55_n66
*454 mult_55_n65
*455 mult_55_n64
*456 mult_55_n63
*457 mult_55_n62
*458 mult_55_n61
*459 mult_55_n60
*460 mult_55_n59
*461 mult_55_n58
*462 mult_55_n57
*463 mult_55_n56
*464 mult_55_n55
*465 mult_55_n53
*466 mult_55_n52
*467 mult_55_n51
*468 mult_55_n50
*469 mult_55_n49
*470 mult_55_n48
*471 mult_55_n47
*472 mult_55_n46
*473 mult_55_n45
*474 mult_55_n44
*475 mult_55_n43
*476 mult_55_n42
*477 mult_55_n41
*478 mult_55_n40
*479 mult_55_n39
*480 mult_55_n38
*481 mult_55_n37
*482 mult_55_n36
*483 mult_55_n35
*484 mult_55_n34
*485 mult_55_n33
*486 mult_55_n32
*487 mult_55_n31
*488 mult_55_n30
*489 mult_55_n29
*490 mult_55_n28
*491 mult_55_n27
*492 mult_55_n26
*493 mult_55_n25
*494 mult_55_n24
*495 mult_55_n23
*496 mult_55_n22
*497 mult_55_n21
*498 mult_55_n20
*499 mult_55_n19
*500 mult_55_n18
*501 mult_55_n17
*502 mult_55_n16
*503 mult_55_n15
*504 mult_55_n14
*505 mult_55_n9
*506 mult_55_n8
*507 mult_55_n7
*508 mult_55_n6
*509 mult_55_n5
*510 mult_55_n4
*511 mult_55_n3
*512 mult_55_n2
*513 mult_56_n208
*514 mult_56_n207
*515 mult_56_n206
*516 mult_56_n205
*517 mult_56_n204
*518 mult_56_n203
*519 mult_56_n202
*520 mult_56_n201
*521 mult_56_n200
*522 mult_56_n199
*523 mult_56_n198
*524 mult_56_n197
*525 mult_56_n196
*526 mult_56_n195
*527 mult_56_n194
*528 mult_56_n191
*529 mult_56_n189
*530 mult_56_n187
*531 mult_56_n186
*532 mult_56_n183
*533 mult_56_n138
*534 mult_56_n137
*535 mult_56_n136
*536 mult_56_n135
*537 mult_56_n133
*538 mult_56_n131
*539 mult_56_n130
*540 mult_56_n129
*541 mult_56_n128
*542 mult_56_n127
*543 mult_56_n126
*544 mult_56_n125
*545 mult_56_n123
*546 mult_56_n122
*547 mult_56_n121
*548 mult_56_n120
*549 mult_56_n119
*550 mult_56_n118
*551 mult_56_n117
*552 mult_56_n116
*553 mult_56_n115
*554 mult_56_n114
*555 mult_56_n113
*556 mult_56_n112
*557 mult_56_n111
*558 mult_56_n110
*559 mult_56_n109
*560 mult_56_n108
*561 mult_56_n107
*562 mult_56_n105
*563 mult_56_n104
*564 mult_56_n103
*565 mult_56_n102
*566 mult_56_n101
*567 mult_56_n100
*568 mult_56_n99
*569 mult_56_n98
*570 mult_56_n97
*571 mult_56_n96
*572 mult_56_n95
*573 mult_56_n94
*574 mult_56_n93
*575 mult_56_n92
*576 mult_56_n91
*577 mult_56_n90
*578 mult_56_n89
*579 mult_56_n88
*580 mult_56_n87
*581 mult_56_n85
*582 mult_56_n84
*583 mult_56_n83
*584 mult_56_n82
*585 mult_56_n81
*586 mult_56_n80
*587 mult_56_n79
*588 mult_56_n78
*589 mult_56_n77
*590 mult_56_n76
*591 mult_56_n75
*592 mult_56_n74
*593 mult_56_n73
*594 mult_56_n72
*595 mult_56_n71
*596 mult_56_n70
*597 mult_56_n69
*598 mult_56_n68
*599 mult_56_n67
*600 mult_56_n66
*601 mult_56_n65
*602 mult_56_n64
*603 mult_56_n63
*604 mult_56_n62
*605 mult_56_n61
*606 mult_56_n60
*607 mult_56_n59
*608 mult_56_n58
*609 mult_56_n57
*610 mult_56_n56
*611 mult_56_n55
*612 mult_56_n53
*613 mult_56_n52
*614 mult_56_n51
*615 mult_56_n50
*616 mult_56_n49
*617 mult_56_n48
*618 mult_56_n47
*619 mult_56_n46
*620 mult_56_n45
*621 mult_56_n44
*622 mult_56_n43
*623 mult_56_n42
*624 mult_56_n41
*625 mult_56_n40
*626 mult_56_n39
*627 mult_56_n38
*628 mult_56_n37
*629 mult_56_n36
*630 mult_56_n35
*631 mult_56_n34
*632 mult_56_n33
*633 mult_56_n32
*634 mult_56_n31
*635 mult_56_n30
*636 mult_56_n29
*637 mult_56_n28
*638 mult_56_n27
*639 mult_56_n26
*640 mult_56_n25
*641 mult_56_n24
*642 mult_56_n23
*643 mult_56_n22
*644 mult_56_n21
*645 mult_56_n20
*646 mult_56_n19
*647 mult_56_n18
*648 mult_56_n17
*649 mult_56_n16
*650 mult_56_n15
*651 mult_56_n14
*652 mult_56_n9
*653 mult_56_n8
*654 mult_56_n7
*655 mult_56_n6
*656 mult_56_n5
*657 mult_56_n4
*658 mult_56_n3
*659 mult_56_n2
*660 add_1_root_add_0_root_add_57_2_n1
*661 add_0_root_add_0_root_add_57_2_n2
*662 mult_50_n208
*663 mult_50_n207
*664 mult_50_n206
*665 mult_50_n205
*666 mult_50_n204
*667 mult_50_n203
*668 mult_50_n202
*669 mult_50_n201
*670 mult_50_n200
*671 mult_50_n199
*672 mult_50_n198
*673 mult_50_n197
*674 mult_50_n196
*675 mult_50_n195
*676 mult_50_n194
*677 mult_50_n191
*678 mult_50_n189
*679 mult_50_n187
*680 mult_50_n186
*681 mult_50_n183
*682 mult_50_n138
*683 mult_50_n137
*684 mult_50_n136
*685 mult_50_n135
*686 mult_50_n133
*687 mult_50_n131
*688 mult_50_n130
*689 mult_50_n129
*690 mult_50_n128
*691 mult_50_n127
*692 mult_50_n126
*693 mult_50_n125
*694 mult_50_n123
*695 mult_50_n122
*696 mult_50_n121
*697 mult_50_n120
*698 mult_50_n119
*699 mult_50_n118
*700 mult_50_n117
*701 mult_50_n116
*702 mult_50_n115
*703 mult_50_n114
*704 mult_50_n113
*705 mult_50_n112
*706 mult_50_n111
*707 mult_50_n110
*708 mult_50_n109
*709 mult_50_n108
*710 mult_50_n107
*711 mult_50_n105
*712 mult_50_n104
*713 mult_50_n103
*714 mult_50_n102
*715 mult_50_n101
*716 mult_50_n100
*717 mult_50_n99
*718 mult_50_n98
*719 mult_50_n97
*720 mult_50_n96
*721 mult_50_n95
*722 mult_50_n94
*723 mult_50_n93
*724 mult_50_n92
*725 mult_50_n91
*726 mult_50_n90
*727 mult_50_n89
*728 mult_50_n88
*729 mult_50_n87
*730 mult_50_n85
*731 mult_50_n84
*732 mult_50_n83
*733 mult_50_n82
*734 mult_50_n81
*735 mult_50_n80
*736 mult_50_n79
*737 mult_50_n78
*738 mult_50_n77
*739 mult_50_n76
*740 mult_50_n75
*741 mult_50_n74
*742 mult_50_n73
*743 mult_50_n72
*744 mult_50_n71
*745 mult_50_n70
*746 mult_50_n69
*747 mult_50_n68
*748 mult_50_n67
*749 mult_50_n66
*750 mult_50_n65
*751 mult_50_n64
*752 mult_50_n63
*753 mult_50_n62
*754 mult_50_n61
*755 mult_50_n60
*756 mult_50_n59
*757 mult_50_n58
*758 mult_50_n57
*759 mult_50_n56
*760 mult_50_n55
*761 mult_50_n53
*762 mult_50_n52
*763 mult_50_n51
*764 mult_50_n50
*765 mult_50_n49
*766 mult_50_n48
*767 mult_50_n47
*768 mult_50_n46
*769 mult_50_n45
*770 mult_50_n44
*771 mult_50_n43
*772 mult_50_n42
*773 mult_50_n41
*774 mult_50_n40
*775 mult_50_n39
*776 mult_50_n38
*777 mult_50_n37
*778 mult_50_n36
*779 mult_50_n35
*780 mult_50_n34
*781 mult_50_n33
*782 mult_50_n32
*783 mult_50_n31
*784 mult_50_n30
*785 mult_50_n29
*786 mult_50_n28
*787 mult_50_n27
*788 mult_50_n26
*789 mult_50_n25
*790 mult_50_n24
*791 mult_50_n23
*792 mult_50_n22
*793 mult_50_n21
*794 mult_50_n20
*795 mult_50_n19
*796 mult_50_n18
*797 mult_50_n17
*798 mult_50_n16
*799 mult_50_n15
*800 mult_50_n14
*801 mult_50_n9
*802 mult_50_n8
*803 mult_50_n7
*804 mult_50_n6
*805 mult_50_n5
*806 mult_50_n4
*807 mult_50_n3
*808 mult_50_n2
*809 mult_51_n208
*810 mult_51_n207
*811 mult_51_n206
*812 mult_51_n205
*813 mult_51_n204
*814 mult_51_n203
*815 mult_51_n202
*816 mult_51_n201
*817 mult_51_n200
*818 mult_51_n199
*819 mult_51_n198
*820 mult_51_n197
*821 mult_51_n196
*822 mult_51_n195
*823 mult_51_n194
*824 mult_51_n191
*825 mult_51_n189
*826 mult_51_n187
*827 mult_51_n186
*828 mult_51_n183
*829 mult_51_n138
*830 mult_51_n137
*831 mult_51_n136
*832 mult_51_n135
*833 mult_51_n133
*834 mult_51_n131
*835 mult_51_n130
*836 mult_51_n129
*837 mult_51_n128
*838 mult_51_n127
*839 mult_51_n126
*840 mult_51_n125
*841 mult_51_n123
*842 mult_51_n122
*843 mult_51_n121
*844 mult_51_n120
*845 mult_51_n119
*846 mult_51_n118
*847 mult_51_n117
*848 mult_51_n116
*849 mult_51_n115
*850 mult_51_n114
*851 mult_51_n113
*852 mult_51_n112
*853 mult_51_n111
*854 mult_51_n110
*855 mult_51_n109
*856 mult_51_n108
*857 mult_51_n107
*858 mult_51_n105
*859 mult_51_n104
*860 mult_51_n103
*861 mult_51_n102
*862 mult_51_n101
*863 mult_51_n100
*864 mult_51_n99
*865 mult_51_n98
*866 mult_51_n97
*867 mult_51_n96
*868 mult_51_n95
*869 mult_51_n94
*870 mult_51_n93
*871 mult_51_n92
*872 mult_51_n91
*873 mult_51_n90
*874 mult_51_n89
*875 mult_51_n88
*876 mult_51_n87
*877 mult_51_n85
*878 mult_51_n84
*879 mult_51_n83
*880 mult_51_n82
*881 mult_51_n81
*882 mult_51_n80
*883 mult_51_n79
*884 mult_51_n78
*885 mult_51_n77
*886 mult_51_n76
*887 mult_51_n75
*888 mult_51_n74
*889 mult_51_n73
*890 mult_51_n72
*891 mult_51_n71
*892 mult_51_n70
*893 mult_51_n69
*894 mult_51_n68
*895 mult_51_n67
*896 mult_51_n66
*897 mult_51_n65
*898 mult_51_n64
*899 mult_51_n63
*900 mult_51_n62
*901 mult_51_n61
*902 mult_51_n60
*903 mult_51_n59
*904 mult_51_n58
*905 mult_51_n57
*906 mult_51_n56
*907 mult_51_n55
*908 mult_51_n53
*909 mult_51_n52
*910 mult_51_n51
*911 mult_51_n50
*912 mult_51_n49
*913 mult_51_n48
*914 mult_51_n47
*915 mult_51_n46
*916 mult_51_n45
*917 mult_51_n44
*918 mult_51_n43
*919 mult_51_n42
*920 mult_51_n41
*921 mult_51_n40
*922 mult_51_n39
*923 mult_51_n38
*924 mult_51_n37
*925 mult_51_n36
*926 mult_51_n35
*927 mult_51_n34
*928 mult_51_n33
*929 mult_51_n32
*930 mult_51_n31
*931 mult_51_n30
*932 mult_51_n29
*933 mult_51_n28
*934 mult_51_n27
*935 mult_51_n26
*936 mult_51_n25
*937 mult_51_n24
*938 mult_51_n23
*939 mult_51_n22
*940 mult_51_n21
*941 mult_51_n20
*942 mult_51_n19
*943 mult_51_n18
*944 mult_51_n17
*945 mult_51_n16
*946 mult_51_n15
*947 mult_51_n14
*948 mult_51_n9
*949 mult_51_n8
*950 mult_51_n7
*951 mult_51_n6
*952 mult_51_n5
*953 mult_51_n4
*954 mult_51_n3
*955 mult_51_n2
*956 add_1_root_add_0_root_add_52_2_n1
*957 add_0_root_add_0_root_add_52_2_n1
*958 q_reg1[7]
*959 q_reg1[6]
*960 q_reg1[5]
*961 q_reg1[4]
*962 q_reg1[3]
*963 q_reg1[2]
*964 q_reg1[1]
*965 q_reg1[0]
*966 q_reg2[7]
*967 q_reg2[6]
*968 q_reg2[5]
*969 q_reg2[4]
*970 q_reg2[3]
*971 q_reg2[2]
*972 q_reg2[1]
*973 q_reg2[0]
*974 TMPa[7]
*975 TMPa[6]
*976 TMPa[5]
*977 TMPa[4]
*978 TMPa[3]
*979 TMPa[2]
*980 TMPa[1]
*981 TMPa[0]
*982 TMPb[7]
*983 TMPb[6]
*984 TMPb[5]
*985 TMPb[4]
*986 TMPb[3]
*987 TMPb[2]
*988 TMPb[1]
*989 TMPb[0]
*990 add_1_root_add_0_root_add_57_2_carry[7]
*991 add_1_root_add_0_root_add_57_2_carry[6]
*992 add_1_root_add_0_root_add_57_2_carry[5]
*993 add_1_root_add_0_root_add_57_2_carry[4]
*994 add_1_root_add_0_root_add_57_2_carry[3]
*995 add_1_root_add_0_root_add_57_2_carry[2]
*996 add_0_root_add_0_root_add_57_2_carry[7]
*997 add_0_root_add_0_root_add_57_2_carry[6]
*998 add_0_root_add_0_root_add_57_2_carry[5]
*999 add_0_root_add_0_root_add_57_2_carry[4]
*1000 add_0_root_add_0_root_add_57_2_carry[3]
*1001 add_0_root_add_0_root_add_57_2_carry[2]
*1002 add_1_root_add_0_root_add_52_2_carry[7]
*1003 add_1_root_add_0_root_add_52_2_carry[6]
*1004 add_1_root_add_0_root_add_52_2_carry[5]
*1005 add_1_root_add_0_root_add_52_2_carry[4]
*1006 add_1_root_add_0_root_add_52_2_carry[3]
*1007 add_1_root_add_0_root_add_52_2_carry[2]
*1008 add_0_root_add_0_root_add_52_2_carry[7]
*1009 add_0_root_add_0_root_add_52_2_carry[6]
*1010 add_0_root_add_0_root_add_52_2_carry[5]
*1011 add_0_root_add_0_root_add_52_2_carry[4]
*1012 add_0_root_add_0_root_add_52_2_carry[3]
*1013 add_0_root_add_0_root_add_52_2_carry[2]
*1014 dout[0]
*1015 FE_RC_0_0
*1016 FE_DBTC13_q_reg1_0
*1017 FE_DBTC12_q_reg1_1
*1018 FE_DBTC11_q_reg1_2
*1019 FE_DBTC10_q_reg1_3
*1020 FE_DBTC9_q_reg1_4
*1021 FE_DBTC8_q_reg1_5
*1022 FE_DBTC7_q_reg1_6
*1023 FE_DBTC6_q_reg2_0
*1024 FE_DBTC5_q_reg2_1
*1025 FE_DBTC4_q_reg2_2
*1026 FE_DBTC3_q_reg2_3
*1027 FE_DBTC2_q_reg2_4
*1028 FE_DBTC1_q_reg2_5
*1029 FE_DBTC0_q_reg2_6
*1030 reg_1_U17
*1031 reg_1_U16
*1032 reg_1_U15
*1033 reg_1_U14
*1034 reg_1_U13
*1035 reg_1_U12
*1036 reg_1_U11
*1037 reg_1_U10
*1038 reg_1_U9
*1039 reg_1_U8
*1040 reg_1_U7
*1041 reg_1_U6
*1042 reg_1_U5
*1043 reg_1_U4
*1044 reg_1_U3
*1045 reg_1_U2
*1046 reg_1_Q_reg_0_
*1047 reg_1_Q_reg_1_
*1048 reg_1_Q_reg_2_
*1049 reg_1_Q_reg_3_
*1050 reg_1_Q_reg_4_
*1051 reg_1_Q_reg_5_
*1052 reg_1_Q_reg_6_
*1053 reg_1_Q_reg_7_
*1054 reg_2_U19
*1055 reg_2_U18
*1056 reg_2_U17
*1057 reg_2_U16
*1058 reg_2_U15
*1059 reg_2_U14
*1060 reg_2_U13
*1061 reg_2_U12
*1062 reg_2_U11
*1063 reg_2_U10
*1064 reg_2_U9
*1065 reg_2_U8
*1066 reg_2_U7
*1067 reg_2_U6
*1068 reg_2_U4
*1069 reg_2_U3
*1070 reg_2_Q_reg_0_
*1071 reg_2_Q_reg_1_
*1072 reg_2_Q_reg_2_
*1073 reg_2_Q_reg_3_
*1074 reg_2_Q_reg_4_
*1075 reg_2_Q_reg_5_
*1076 reg_2_Q_reg_6_
*1077 reg_2_Q_reg_7_
*1078 reg_dout_U17
*1079 reg_dout_U16
*1080 reg_dout_U15
*1081 reg_dout_U14
*1082 reg_dout_U13
*1083 reg_dout_U12
*1084 reg_dout_U11
*1085 reg_dout_U10
*1086 reg_dout_U9
*1087 reg_dout_U8
*1088 reg_dout_U7
*1089 reg_dout_U6
*1090 reg_dout_U5
*1091 reg_dout_U4
*1092 reg_dout_U3
*1093 reg_dout_U2
*1094 reg_dout_Q_reg_0_
*1095 reg_dout_Q_reg_1_
*1096 reg_dout_Q_reg_2_
*1097 reg_dout_Q_reg_3_
*1098 reg_dout_Q_reg_4_
*1099 reg_dout_Q_reg_5_
*1100 reg_dout_Q_reg_6_
*1101 reg_dout_Q_reg_7_
*1102 ff_1_U3
*1103 ff_1_Q_reg
*1104 mult_54_U203
*1105 mult_54_U202
*1106 mult_54_U201
*1107 mult_54_U200
*1108 mult_54_U199
*1109 mult_54_U198
*1110 mult_54_U197
*1111 mult_54_U196
*1112 mult_54_U195
*1113 mult_54_U194
*1114 mult_54_U193
*1115 mult_54_U192
*1116 mult_54_U191
*1117 mult_54_U190
*1118 mult_54_U189
*1119 mult_54_U188
*1120 mult_54_U187
*1121 mult_54_U186
*1122 mult_54_U185
*1123 mult_54_U184
*1124 mult_54_U183
*1125 mult_54_U182
*1126 mult_54_U181
*1127 mult_54_U180
*1128 mult_54_U179
*1129 mult_54_U178
*1130 mult_54_U177
*1131 mult_54_U176
*1132 mult_54_U175
*1133 mult_54_U174
*1134 mult_54_U173
*1135 mult_54_U172
*1136 mult_54_U171
*1137 mult_54_U170
*1138 mult_54_U169
*1139 mult_54_U168
*1140 mult_54_U167
*1141 mult_54_U166
*1142 mult_54_U165
*1143 mult_54_U164
*1144 mult_54_U163
*1145 mult_54_U162
*1146 mult_54_U161
*1147 mult_54_U160
*1148 mult_54_U159
*1149 mult_54_U158
*1150 mult_54_U157
*1151 mult_54_U156
*1152 mult_54_U155
*1153 mult_54_U154
*1154 mult_54_U153
*1155 mult_54_U152
*1156 mult_54_U151
*1157 mult_54_U150
*1158 mult_54_U149
*1159 mult_54_U148
*1160 mult_54_U147
*1161 mult_54_U146
*1162 mult_54_U145
*1163 mult_54_U144
*1164 mult_54_U143
*1165 mult_54_U142
*1166 mult_54_U141
*1167 mult_54_U140
*1168 mult_54_U139
*1169 mult_54_U138
*1170 mult_54_U137
*1171 mult_54_U136
*1172 mult_54_U135
*1173 mult_54_U134
*1174 mult_54_U133
*1175 mult_54_U132
*1176 mult_54_U131
*1177 mult_54_U130
*1178 mult_54_U129
*1179 mult_54_U128
*1180 mult_54_U127
*1181 mult_54_U126
*1182 mult_54_U125
*1183 mult_54_U124
*1184 mult_54_U51
*1185 mult_54_U50
*1186 mult_54_U49
*1187 mult_54_U48
*1188 mult_54_U47
*1189 mult_54_U46
*1190 mult_54_U45
*1191 mult_54_U44
*1192 mult_54_U43
*1193 mult_54_U42
*1194 mult_54_U39
*1195 mult_54_U38
*1196 mult_54_U37
*1197 mult_54_U36
*1198 mult_54_U34
*1199 mult_54_U33
*1200 mult_54_U32
*1201 mult_54_U31
*1202 mult_54_U30
*1203 mult_54_U29
*1204 mult_54_U28
*1205 mult_54_U27
*1206 mult_54_U26
*1207 mult_54_U25
*1208 mult_54_U24
*1209 mult_54_U23
*1210 mult_54_U22
*1211 mult_54_U21
*1212 mult_54_U20
*1213 mult_54_U19
*1214 mult_54_U18
*1215 mult_54_U17
*1216 mult_54_U16
*1217 mult_54_U15
*1218 mult_54_U9
*1219 mult_54_U8
*1220 mult_54_U7
*1221 mult_54_U6
*1222 mult_54_U5
*1223 mult_54_U4
*1224 mult_54_U3
*1225 mult_55_U203
*1226 mult_55_U202
*1227 mult_55_U201
*1228 mult_55_U200
*1229 mult_55_U199
*1230 mult_55_U198
*1231 mult_55_U197
*1232 mult_55_U196
*1233 mult_55_U195
*1234 mult_55_U194
*1235 mult_55_U193
*1236 mult_55_U192
*1237 mult_55_U191
*1238 mult_55_U190
*1239 mult_55_U189
*1240 mult_55_U188
*1241 mult_55_U187
*1242 mult_55_U186
*1243 mult_55_U185
*1244 mult_55_U184
*1245 mult_55_U183
*1246 mult_55_U182
*1247 mult_55_U181
*1248 mult_55_U180
*1249 mult_55_U179
*1250 mult_55_U178
*1251 mult_55_U177
*1252 mult_55_U176
*1253 mult_55_U175
*1254 mult_55_U174
*1255 mult_55_U173
*1256 mult_55_U172
*1257 mult_55_U171
*1258 mult_55_U170
*1259 mult_55_U169
*1260 mult_55_U168
*1261 mult_55_U167
*1262 mult_55_U166
*1263 mult_55_U165
*1264 mult_55_U164
*1265 mult_55_U163
*1266 mult_55_U162
*1267 mult_55_U161
*1268 mult_55_U160
*1269 mult_55_U159
*1270 mult_55_U158
*1271 mult_55_U157
*1272 mult_55_U156
*1273 mult_55_U155
*1274 mult_55_U154
*1275 mult_55_U153
*1276 mult_55_U152
*1277 mult_55_U151
*1278 mult_55_U150
*1279 mult_55_U149
*1280 mult_55_U148
*1281 mult_55_U147
*1282 mult_55_U146
*1283 mult_55_U145
*1284 mult_55_U144
*1285 mult_55_U143
*1286 mult_55_U142
*1287 mult_55_U134
*1288 mult_55_U133
*1289 mult_55_U132
*1290 mult_55_U131
*1291 mult_55_U130
*1292 mult_55_U129
*1293 mult_55_U128
*1294 mult_55_U127
*1295 mult_55_U126
*1296 mult_55_U125
*1297 mult_55_U124
*1298 mult_55_U51
*1299 mult_55_U50
*1300 mult_55_U49
*1301 mult_55_U48
*1302 mult_55_U47
*1303 mult_55_U46
*1304 mult_55_U45
*1305 mult_55_U44
*1306 mult_55_U43
*1307 mult_55_U42
*1308 mult_55_U39
*1309 mult_55_U38
*1310 mult_55_U37
*1311 mult_55_U36
*1312 mult_55_U34
*1313 mult_55_U33
*1314 mult_55_U32
*1315 mult_55_U31
*1316 mult_55_U30
*1317 mult_55_U29
*1318 mult_55_U28
*1319 mult_55_U27
*1320 mult_55_U26
*1321 mult_55_U25
*1322 mult_55_U24
*1323 mult_55_U23
*1324 mult_55_U22
*1325 mult_55_U21
*1326 mult_55_U20
*1327 mult_55_U19
*1328 mult_55_U18
*1329 mult_55_U17
*1330 mult_55_U16
*1331 mult_55_U15
*1332 mult_55_U9
*1333 mult_55_U8
*1334 mult_55_U7
*1335 mult_55_U6
*1336 mult_55_U5
*1337 mult_55_U4
*1338 mult_55_U3
*1339 mult_56_U203
*1340 mult_56_U202
*1341 mult_56_U201
*1342 mult_56_U200
*1343 mult_56_U199
*1344 mult_56_U198
*1345 mult_56_U197
*1346 mult_56_U196
*1347 mult_56_U195
*1348 mult_56_U194
*1349 mult_56_U193
*1350 mult_56_U192
*1351 mult_56_U191
*1352 mult_56_U190
*1353 mult_56_U189
*1354 mult_56_U188
*1355 mult_56_U187
*1356 mult_56_U186
*1357 mult_56_U185
*1358 mult_56_U184
*1359 mult_56_U183
*1360 mult_56_U182
*1361 mult_56_U181
*1362 mult_56_U180
*1363 mult_56_U179
*1364 mult_56_U178
*1365 mult_56_U177
*1366 mult_56_U176
*1367 mult_56_U175
*1368 mult_56_U174
*1369 mult_56_U173
*1370 mult_56_U172
*1371 mult_56_U171
*1372 mult_56_U170
*1373 mult_56_U169
*1374 mult_56_U168
*1375 mult_56_U167
*1376 mult_56_U166
*1377 mult_56_U165
*1378 mult_56_U164
*1379 mult_56_U163
*1380 mult_56_U162
*1381 mult_56_U161
*1382 mult_56_U160
*1383 mult_56_U159
*1384 mult_56_U158
*1385 mult_56_U157
*1386 mult_56_U156
*1387 mult_56_U155
*1388 mult_56_U154
*1389 mult_56_U153
*1390 mult_56_U152
*1391 mult_56_U151
*1392 mult_56_U150
*1393 mult_56_U149
*1394 mult_56_U148
*1395 mult_56_U147
*1396 mult_56_U146
*1397 mult_56_U145
*1398 mult_56_U144
*1399 mult_56_U143
*1400 mult_56_U142
*1401 mult_56_U134
*1402 mult_56_U133
*1403 mult_56_U132
*1404 mult_56_U131
*1405 mult_56_U130
*1406 mult_56_U129
*1407 mult_56_U128
*1408 mult_56_U127
*1409 mult_56_U126
*1410 mult_56_U125
*1411 mult_56_U124
*1412 mult_56_U51
*1413 mult_56_U50
*1414 mult_56_U49
*1415 mult_56_U48
*1416 mult_56_U47
*1417 mult_56_U46
*1418 mult_56_U45
*1419 mult_56_U44
*1420 mult_56_U43
*1421 mult_56_U42
*1422 mult_56_U39
*1423 mult_56_U38
*1424 mult_56_U37
*1425 mult_56_U36
*1426 mult_56_U34
*1427 mult_56_U33
*1428 mult_56_U32
*1429 mult_56_U31
*1430 mult_56_U30
*1431 mult_56_U29
*1432 mult_56_U28
*1433 mult_56_U27
*1434 mult_56_U26
*1435 mult_56_U25
*1436 mult_56_U24
*1437 mult_56_U23
*1438 mult_56_U22
*1439 mult_56_U21
*1440 mult_56_U20
*1441 mult_56_U19
*1442 mult_56_U18
*1443 mult_56_U17
*1444 mult_56_U16
*1445 mult_56_U15
*1446 mult_56_U9
*1447 mult_56_U8
*1448 mult_56_U7
*1449 mult_56_U6
*1450 mult_56_U5
*1451 mult_56_U4
*1452 mult_56_U3
*1453 add_1_root_add_0_root_add_57_2_U2
*1454 add_1_root_add_0_root_add_57_2_U1
*1455 add_1_root_add_0_root_add_57_2_U1_1
*1456 add_1_root_add_0_root_add_57_2_U1_2
*1457 add_1_root_add_0_root_add_57_2_U1_3
*1458 add_1_root_add_0_root_add_57_2_U1_4
*1459 add_1_root_add_0_root_add_57_2_U1_5
*1460 add_1_root_add_0_root_add_57_2_U1_6
*1461 add_1_root_add_0_root_add_57_2_U1_7
*1462 add_0_root_add_0_root_add_57_2_U2
*1463 add_0_root_add_0_root_add_57_2_U1
*1464 add_0_root_add_0_root_add_57_2_U1_1
*1465 add_0_root_add_0_root_add_57_2_U1_2
*1466 add_0_root_add_0_root_add_57_2_U1_3
*1467 add_0_root_add_0_root_add_57_2_U1_4
*1468 add_0_root_add_0_root_add_57_2_U1_5
*1469 add_0_root_add_0_root_add_57_2_U1_6
*1470 add_0_root_add_0_root_add_57_2_U1_7
*1471 mult_50_U203
*1472 mult_50_U202
*1473 mult_50_U201
*1474 mult_50_U200
*1475 mult_50_U199
*1476 mult_50_U198
*1477 mult_50_U197
*1478 mult_50_U196
*1479 mult_50_U195
*1480 mult_50_U194
*1481 mult_50_U193
*1482 mult_50_U192
*1483 mult_50_U191
*1484 mult_50_U190
*1485 mult_50_U189
*1486 mult_50_U188
*1487 mult_50_U187
*1488 mult_50_U186
*1489 mult_50_U185
*1490 mult_50_U184
*1491 mult_50_U183
*1492 mult_50_U182
*1493 mult_50_U181
*1494 mult_50_U180
*1495 mult_50_U179
*1496 mult_50_U178
*1497 mult_50_U177
*1498 mult_50_U176
*1499 mult_50_U175
*1500 mult_50_U174
*1501 mult_50_U173
*1502 mult_50_U172
*1503 mult_50_U171
*1504 mult_50_U170
*1505 mult_50_U169
*1506 mult_50_U168
*1507 mult_50_U167
*1508 mult_50_U166
*1509 mult_50_U165
*1510 mult_50_U164
*1511 mult_50_U163
*1512 mult_50_U162
*1513 mult_50_U161
*1514 mult_50_U160
*1515 mult_50_U159
*1516 mult_50_U158
*1517 mult_50_U157
*1518 mult_50_U156
*1519 mult_50_U155
*1520 mult_50_U154
*1521 mult_50_U153
*1522 mult_50_U152
*1523 mult_50_U151
*1524 mult_50_U150
*1525 mult_50_U149
*1526 mult_50_U148
*1527 mult_50_U147
*1528 mult_50_U146
*1529 mult_50_U145
*1530 mult_50_U144
*1531 mult_50_U143
*1532 mult_50_U142
*1533 mult_50_U141
*1534 mult_50_U137
*1535 mult_50_U136
*1536 mult_50_U131
*1537 mult_50_U130
*1538 mult_50_U129
*1539 mult_50_U128
*1540 mult_50_U127
*1541 mult_50_U126
*1542 mult_50_U125
*1543 mult_50_U124
*1544 mult_50_U51
*1545 mult_50_U50
*1546 mult_50_U49
*1547 mult_50_U48
*1548 mult_50_U47
*1549 mult_50_U46
*1550 mult_50_U45
*1551 mult_50_U44
*1552 mult_50_U43
*1553 mult_50_U42
*1554 mult_50_U39
*1555 mult_50_U38
*1556 mult_50_U37
*1557 mult_50_U36
*1558 mult_50_U34
*1559 mult_50_U33
*1560 mult_50_U32
*1561 mult_50_U31
*1562 mult_50_U30
*1563 mult_50_U29
*1564 mult_50_U28
*1565 mult_50_U27
*1566 mult_50_U26
*1567 mult_50_U25
*1568 mult_50_U24
*1569 mult_50_U23
*1570 mult_50_U22
*1571 mult_50_U21
*1572 mult_50_U20
*1573 mult_50_U19
*1574 mult_50_U18
*1575 mult_50_U17
*1576 mult_50_U16
*1577 mult_50_U15
*1578 mult_50_U9
*1579 mult_50_U8
*1580 mult_50_U7
*1581 mult_50_U6
*1582 mult_50_U5
*1583 mult_50_U4
*1584 mult_50_U3
*1585 mult_51_U203
*1586 mult_51_U202
*1587 mult_51_U201
*1588 mult_51_U200
*1589 mult_51_U199
*1590 mult_51_U198
*1591 mult_51_U197
*1592 mult_51_U196
*1593 mult_51_U195
*1594 mult_51_U194
*1595 mult_51_U193
*1596 mult_51_U192
*1597 mult_51_U191
*1598 mult_51_U190
*1599 mult_51_U189
*1600 mult_51_U188
*1601 mult_51_U187
*1602 mult_51_U186
*1603 mult_51_U185
*1604 mult_51_U184
*1605 mult_51_U183
*1606 mult_51_U182
*1607 mult_51_U181
*1608 mult_51_U180
*1609 mult_51_U179
*1610 mult_51_U178
*1611 mult_51_U177
*1612 mult_51_U176
*1613 mult_51_U175
*1614 mult_51_U174
*1615 mult_51_U173
*1616 mult_51_U172
*1617 mult_51_U171
*1618 mult_51_U170
*1619 mult_51_U169
*1620 mult_51_U168
*1621 mult_51_U167
*1622 mult_51_U166
*1623 mult_51_U165
*1624 mult_51_U164
*1625 mult_51_U163
*1626 mult_51_U162
*1627 mult_51_U161
*1628 mult_51_U160
*1629 mult_51_U159
*1630 mult_51_U158
*1631 mult_51_U157
*1632 mult_51_U156
*1633 mult_51_U155
*1634 mult_51_U154
*1635 mult_51_U153
*1636 mult_51_U152