*SPEF "IEEE 1481-1998"
*DESIGN "iir_filter"
*DATE "Thu Nov 18 00:14:02 2021"
*VENDOR "Cadence Design Systems, Inc."
*PROGRAM "Innovus"
*VERSION "17.11-s080_1"
*DESIGN_FLOW "COUPLING C" "PIN_CAP NONE" "NAME_SCOPE LOCAL"
*DIVIDER /
*DELIMITER :
*BUS_DELIMITER []
*T_UNIT 1 NS
*C_UNIT 1 PF
*R_UNIT 1 OHM
*L_UNIT 1 HENRY

// MMMC spef file for corner 'my_rc'

*NAME_MAP

*1 clock
*2 rst_n
*3 din[8]
*4 din[7]
*5 din[6]
*6 din[5]
*7 din[4]
*8 din[3]
*9 din[2]
*10 din[1]
*11 din[0]
*12 a1[8]
*13 a1[7]
*14 a1[6]
*15 a1[5]
*16 a1[4]
*17 a1[3]
*18 a1[2]
*19 a1[1]
*20 a1[0]
*21 c2[8]
*22 c2[7]
*23 c2[6]
*24 c2[5]
*25 c2[4]
*26 c2[3]
*27 c2[2]
*28 c2[1]
*29 c2[0]
*30 c3[8]
*31 c3[7]
*32 c3[6]
*33 c3[5]
*34 c3[4]
*35 c3[3]
*36 c3[2]
*37 c3[1]
*38 c3[0]
*39 b0[8]
*40 b0[7]
*41 b0[6]
*42 b0[5]
*43 b0[4]
*44 b0[3]
*45 b0[2]
*46 b0[1]
*47 b0[0]
*48 b1[8]
*49 b1[7]
*50 b1[6]
*51 b1[5]
*52 b1[4]
*53 b1[3]
*54 b1[2]
*55 b1[1]
*56 b1[0]
*57 b2[8]
*58 b2[7]
*59 b2[6]
*60 b2[5]
*61 b2[4]
*62 b2[3]
*63 b2[2]
*64 b2[1]
*65 b2[0]
*66 vin
*67 dout[8]
*68 dout[7]
*69 dout[6]
*70 dout[5]
*71 dout[4]
*72 dout[3]
*73 dout[2]
*74 dout[1]
*75 vout
*76 FE_OFN0_vin
*77 FE_DBTN6_q_reg2_0
*78 FE_DBTN5_q_reg2_1
*79 FE_DBTN4_q_reg2_2
*80 FE_DBTN3_q_reg2_3
*81 FE_DBTN2_q_reg2_4
*82 FE_DBTN1_q_reg2_5
*83 FE_DBTN0_q_reg2_6
*84 TMPtmpa_b0_9_
*85 TMPtmpa_b0_8_
*86 TMPtmpa_b0_7_
*87 TMPtmpa_b0_6_
*88 TMPtmpa_b0_13_
*89 TMPtmpa_b0_12_
*90 TMPtmpa_b0_11_
*91 TMPtmpa_b0_10_
*92 TMPq2_b2_9_
*93 TMPq2_b2_8_
*94 TMPq2_b2_7_
*95 TMPq2_b2_6_
*96 TMPq2_b2_13_
*97 TMPq2_b2_12_
*98 TMPq2_b2_11_
*99 TMPq2_b2_10_
*100 TMPq1_b1_9_
*101 TMPq1_b1_8_
*102 TMPq1_b1_7_
*103 TMPq1_b1_6_
*104 TMPq1_b1_13_
*105 TMPq1_b1_12_
*106 TMPq1_b1_11_
*107 TMPq1_b1_10_
*108 N23
*109 N22
*110 N21
*111 N20
*112 N19
*113 N18
*114 N17
*115 N16
*116 TMPqx_a1_9_
*117 TMPqx_a1_8_
*118 TMPqx_a1_7_
*119 TMPqx_a1_6_
*120 TMPqx_a1_13_
*121 TMPqx_a1_12_
*122 TMPqx_a1_11_
*123 TMPqx_a1_10_
*124 TMPq3_c3_9_
*125 TMPq3_c3_8_
*126 TMPq3_c3_7_
*127 TMPq3_c3_6_
*128 TMPq3_c3_13_
*129 TMPq3_c3_12_
*130 TMPq3_c3_11_
*131 TMPq3_c3_10_
*132 TMPq2_c2_9_
*133 TMPq2_c2_8_
*134 TMPq2_c2_7_
*135 TMPq2_c2_6_
*136 TMPq2_c2_13_
*137 TMPq2_c2_12_
*138 TMPq2_c2_11_
*139 TMPq2_c2_10_
*140 N9
*141 N8
*142 N7
*143 N6
*144 N5
*145 N4
*146 N3
*147 N2
*148 N15
*149 N14
*150 N13
*151 N12
*152 N11
*153 N10
*154 N1
*155 N0
*156 reg_x_n24
*157 reg_x_n23
*158 reg_x_n22
*159 reg_x_n21
*160 reg_x_n20
*161 reg_x_n19
*162 reg_x_n18
*163 reg_x_n17
*164 reg_x_n16
*165 reg_x_n15
*166 reg_x_n14
*167 reg_x_n13
*168 reg_x_n12
*169 reg_x_n11
*170 reg_x_n10
*171 reg_x_n9
*172 reg_x_n8
*173 reg_x_n7
*174 reg_x_n6
*175 reg_x_n5
*176 reg_x_n4
*177 reg_x_n3
*178 reg_x_n2
*179 reg_x_n1
*180 reg_1_n50
*181 reg_1_n49
*182 reg_1_n48
*183 reg_1_n47
*184 reg_1_n46
*185 reg_1_n45
*186 reg_1_n44
*187 reg_1_n43
*188 reg_1_n42
*189 reg_1_n41
*190 reg_1_n40
*191 reg_1_n39
*192 reg_1_n38
*193 reg_1_n37
*194 reg_1_n36
*195 reg_1_n35
*196 reg_1_n34
*197 reg_1_n33
*198 reg_1_n32
*199 reg_1_n31
*200 reg_1_n30
*201 reg_1_n29
*202 reg_1_n28
*203 reg_1_n27
*204 reg_2_n50
*205 reg_2_n49
*206 reg_2_n48
*207 reg_2_n47
*208 reg_2_n46
*209 reg_2_n45
*210 reg_2_n44
*211 reg_2_n43
*212 reg_2_n42
*213 reg_2_n41
*214 reg_2_n40
*215 reg_2_n39
*216 reg_2_n38
*217 reg_2_n37
*218 reg_2_n36
*219 reg_2_n35
*220 reg_2_n34
*221 reg_2_n33
*222 reg_2_n32
*223 reg_2_n31
*224 reg_2_n30
*225 reg_2_n29
*226 reg_2_n28
*227 reg_2_n27
*228 reg_3_n50
*229 reg_3_n49
*230 reg_3_n48
*231 reg_3_n47
*232 reg_3_n46
*233 reg_3_n45
*234 reg_3_n44
*235 reg_3_n43
*236 reg_3_n42
*237 reg_3_n41
*238 reg_3_n40
*239 reg_3_n39
*240 reg_3_n38
*241 reg_3_n37
*242 reg_3_n36
*243 reg_3_n35
*244 reg_3_n34
*245 reg_3_n33
*246 reg_3_n32
*247 reg_3_n31
*248 reg_3_n30
*249 reg_3_n29
*250 reg_3_n28
*251 reg_3_n27
*252 reg_dout_n50
*253 reg_dout_n49
*254 reg_dout_n48
*255 reg_dout_n47
*256 reg_dout_n46
*257 reg_dout_n45
*258 reg_dout_n44
*259 reg_dout_n43
*260 reg_dout_n42
*261 reg_dout_n41
*262 reg_dout_n40
*263 reg_dout_n39
*264 reg_dout_n38
*265 reg_dout_n37
*266 reg_dout_n36
*267 reg_dout_n35
*268 reg_dout_n34
*269 reg_dout_n33
*270 reg_dout_n32
*271 reg_dout_n31
*272 reg_dout_n30
*273 reg_dout_n29
*274 reg_dout_n28
*275 reg_dout_n27
*276 ff_1_n3
*277 ff_1_n2
*278 ff_1_n1
*279 mult_50_n208
*280 mult_50_n207
*281 mult_50_n206
*282 mult_50_n205
*283 mult_50_n204
*284 mult_50_n203
*285 mult_50_n202
*286 mult_50_n201
*287 mult_50_n200
*288 mult_50_n199
*289 mult_50_n198
*290 mult_50_n197
*291 mult_50_n196
*292 mult_50_n195
*293 mult_50_n194
*294 mult_50_n193
*295 mult_50_n192
*296 mult_50_n191
*297 mult_50_n190
*298 mult_50_n189
*299 mult_50_n188
*300 mult_50_n187
*301 mult_50_n186
*302 mult_50_n185
*303 mult_50_n184
*304 mult_50_n183
*305 mult_50_n182
*306 mult_50_n138
*307 mult_50_n137
*308 mult_50_n136
*309 mult_50_n135
*310 mult_50_n133
*311 mult_50_n131
*312 mult_50_n130
*313 mult_50_n129
*314 mult_50_n128
*315 mult_50_n127
*316 mult_50_n126
*317 mult_50_n125
*318 mult_50_n123
*319 mult_50_n122
*320 mult_50_n121
*321 mult_50_n120
*322 mult_50_n119
*323 mult_50_n118
*324 mult_50_n117
*325 mult_50_n116
*326 mult_50_n115
*327 mult_50_n114
*328 mult_50_n113
*329 mult_50_n112
*330 mult_50_n111
*331 mult_50_n110
*332 mult_50_n109
*333 mult_50_n108
*334 mult_50_n107
*335 mult_50_n105
*336 mult_50_n104
*337 mult_50_n103
*338 mult_50_n102
*339 mult_50_n101
*340 mult_50_n100
*341 mult_50_n99
*342 mult_50_n98
*343 mult_50_n97
*344 mult_50_n96
*345 mult_50_n95
*346 mult_50_n94
*347 mult_50_n93
*348 mult_50_n92
*349 mult_50_n91
*350 mult_50_n90
*351 mult_50_n89
*352 mult_50_n88
*353 mult_50_n87
*354 mult_50_n85
*355 mult_50_n84
*356 mult_50_n83
*357 mult_50_n82
*358 mult_50_n81
*359 mult_50_n80
*360 mult_50_n79
*361 mult_50_n78
*362 mult_50_n77
*363 mult_50_n76
*364 mult_50_n75
*365 mult_50_n74
*366 mult_50_n73
*367 mult_50_n72
*368 mult_50_n71
*369 mult_50_n70
*370 mult_50_n69
*371 mult_50_n68
*372 mult_50_n67
*373 mult_50_n66
*374 mult_50_n65
*375 mult_50_n64
*376 mult_50_n63
*377 mult_50_n62
*378 mult_50_n61
*379 mult_50_n60
*380 mult_50_n59
*381 mult_50_n58
*382 mult_50_n57
*383 mult_50_n56
*384 mult_50_n55
*385 mult_50_n53
*386 mult_50_n52
*387 mult_50_n51
*388 mult_50_n50
*389 mult_50_n49
*390 mult_50_n48
*391 mult_50_n47
*392 mult_50_n46
*393 mult_50_n45
*394 mult_50_n44
*395 mult_50_n43
*396 mult_50_n42
*397 mult_50_n41
*398 mult_50_n40
*399 mult_50_n39
*400 mult_50_n38
*401 mult_50_n37
*402 mult_50_n36
*403 mult_50_n35
*404 mult_50_n34
*405 mult_50_n33
*406 mult_50_n32
*407 mult_50_n31
*408 mult_50_n30
*409 mult_50_n29
*410 mult_50_n28
*411 mult_50_n27
*412 mult_50_n26
*413 mult_50_n25
*414 mult_50_n24
*415 mult_50_n23
*416 mult_50_n22
*417 mult_50_n21
*418 mult_50_n20
*419 mult_50_n19
*420 mult_50_n18
*421 mult_50_n17
*422 mult_50_n16
*423 mult_50_n15
*424 mult_50_n14
*425 mult_50_n9
*426 mult_50_n8
*427 mult_50_n7
*428 mult_50_n6
*429 mult_50_n5
*430 mult_50_n4
*431 mult_50_n3
*432 mult_50_n2
*433 mult_51_n208
*434 mult_51_n207
*435 mult_51_n206
*436 mult_51_n205
*437 mult_51_n204
*438 mult_51_n203
*439 mult_51_n202
*440 mult_51_n201
*441 mult_51_n200
*442 mult_51_n199
*443 mult_51_n198
*444 mult_51_n197
*445 mult_51_n196
*446 mult_51_n195
*447 mult_51_n194
*448 mult_51_n193
*449 mult_51_n192
*450 mult_51_n191
*451 mult_51_n190
*452 mult_51_n189
*453 mult_51_n188
*454 mult_51_n187
*455 mult_51_n186
*456 mult_51_n185
*457 mult_51_n184
*458 mult_51_n183
*459 mult_51_n182
*460 mult_51_n138
*461 mult_51_n137
*462 mult_51_n136
*463 mult_51_n135
*464 mult_51_n133
*465 mult_51_n131
*466 mult_51_n130
*467 mult_51_n129
*468 mult_51_n128
*469 mult_51_n127
*470 mult_51_n126
*471 mult_51_n125
*472 mult_51_n123
*473 mult_51_n122
*474 mult_51_n121
*475 mult_51_n120
*476 mult_51_n119
*477 mult_51_n118
*478 mult_51_n117
*479 mult_51_n116
*480 mult_51_n115
*481 mult_51_n114
*482 mult_51_n113
*483 mult_51_n112
*484 mult_51_n111
*485 mult_51_n110
*486 mult_51_n109
*487 mult_51_n108
*488 mult_51_n107
*489 mult_51_n105
*490 mult_51_n104
*491 mult_51_n103
*492 mult_51_n102
*493 mult_51_n101
*494 mult_51_n100
*495 mult_51_n99
*496 mult_51_n98
*497 mult_51_n97
*498 mult_51_n96
*499 mult_51_n95
*500 mult_51_n94
*501 mult_51_n93
*502 mult_51_n92
*503 mult_51_n91
*504 mult_51_n90
*505 mult_51_n89
*506 mult_51_n88
*507 mult_51_n87
*508 mult_51_n85
*509 mult_51_n84
*510 mult_51_n83
*511 mult_51_n82
*512 mult_51_n81
*513 mult_51_n80
*514 mult_51_n79
*515 mult_51_n78
*516 mult_51_n77
*517 mult_51_n76
*518 mult_51_n75
*519 mult_51_n74
*520 mult_51_n73
*521 mult_51_n72
*522 mult_51_n71
*523 mult_51_n70
*524 mult_51_n69
*525 mult_51_n68
*526 mult_51_n67
*527 mult_51_n66
*528 mult_51_n65
*529 mult_51_n64
*530 mult_51_n63
*531 mult_51_n62
*532 mult_51_n61
*533 mult_51_n60
*534 mult_51_n59
*535 mult_51_n58
*536 mult_51_n57
*537 mult_51_n56
*538 mult_51_n55
*539 mult_51_n53
*540 mult_51_n52
*541 mult_51_n51
*542 mult_51_n50
*543 mult_51_n49
*544 mult_51_n48
*545 mult_51_n47
*546 mult_51_n46
*547 mult_51_n45
*548 mult_51_n44
*549 mult_51_n43
*550 mult_51_n42
*551 mult_51_n41
*552 mult_51_n40
*553 mult_51_n39
*554 mult_51_n38
*555 mult_51_n37
*556 mult_51_n36
*557 mult_51_n35
*558 mult_51_n34
*559 mult_51_n33
*560 mult_51_n32
*561 mult_51_n31
*562 mult_51_n30
*563 mult_51_n29
*564 mult_51_n28
*565 mult_51_n27
*566 mult_51_n26
*567 mult_51_n25
*568 mult_51_n24
*569 mult_51_n23
*570 mult_51_n22
*571 mult_51_n21
*572 mult_51_n20
*573 mult_51_n19
*574 mult_51_n18
*575 mult_51_n17
*576 mult_51_n16
*577 mult_51_n15
*578 mult_51_n14
*579 mult_51_n9
*580 mult_51_n8
*581 mult_51_n7
*582 mult_51_n6
*583 mult_51_n5
*584 mult_51_n4
*585 mult_51_n3
*586 mult_51_n2
*587 mult_52_n208
*588 mult_52_n207
*589 mult_52_n206
*590 mult_52_n205
*591 mult_52_n204
*592 mult_52_n203
*593 mult_52_n202
*594 mult_52_n201
*595 mult_52_n200
*596 mult_52_n199
*597 mult_52_n198
*598 mult_52_n197
*599 mult_52_n196
*600 mult_52_n195
*601 mult_52_n194
*602 mult_52_n191
*603 mult_52_n189
*604 mult_52_n187
*605 mult_52_n186
*606 mult_52_n183
*607 mult_52_n138
*608 mult_52_n137
*609 mult_52_n136
*610 mult_52_n135
*611 mult_52_n133
*612 mult_52_n131
*613 mult_52_n130
*614 mult_52_n129
*615 mult_52_n128
*616 mult_52_n127
*617 mult_52_n126
*618 mult_52_n125
*619 mult_52_n123
*620 mult_52_n122
*621 mult_52_n121
*622 mult_52_n120
*623 mult_52_n119
*624 mult_52_n118
*625 mult_52_n117
*626 mult_52_n116
*627 mult_52_n115
*628 mult_52_n114
*629 mult_52_n113
*630 mult_52_n112
*631 mult_52_n111
*632 mult_52_n110
*633 mult_52_n109
*634 mult_52_n108
*635 mult_52_n107
*636 mult_52_n105
*637 mult_52_n104
*638 mult_52_n103
*639 mult_52_n102
*640 mult_52_n101
*641 mult_52_n100
*642 mult_52_n99
*643 mult_52_n98
*644 mult_52_n97
*645 mult_52_n96
*646 mult_52_n95
*647 mult_52_n94
*648 mult_52_n93
*649 mult_52_n92
*650 mult_52_n91
*651 mult_52_n90
*652 mult_52_n89
*653 mult_52_n88
*654 mult_52_n87
*655 mult_52_n85
*656 mult_52_n84
*657 mult_52_n83
*658 mult_52_n82
*659 mult_52_n81
*660 mult_52_n80
*661 mult_52_n79
*662 mult_52_n78
*663 mult_52_n77
*664 mult_52_n76
*665 mult_52_n75
*666 mult_52_n74
*667 mult_52_n73
*668 mult_52_n72
*669 mult_52_n71
*670 mult_52_n70
*671 mult_52_n69
*672 mult_52_n68
*673 mult_52_n67
*674 mult_52_n66
*675 mult_52_n65
*676 mult_52_n64
*677 mult_52_n63
*678 mult_52_n62
*679 mult_52_n61
*680 mult_52_n60
*681 mult_52_n59
*682 mult_52_n58
*683 mult_52_n57
*684 mult_52_n56
*685 mult_52_n55
*686 mult_52_n53
*687 mult_52_n52
*688 mult_52_n51
*689 mult_52_n50
*690 mult_52_n49
*691 mult_52_n48
*692 mult_52_n47
*693 mult_52_n46
*694 mult_52_n45
*695 mult_52_n44
*696 mult_52_n43
*697 mult_52_n42
*698 mult_52_n41
*699 mult_52_n40
*700 mult_52_n39
*701 mult_52_n38
*702 mult_52_n37
*703 mult_52_n36
*704 mult_52_n35
*705 mult_52_n34
*706 mult_52_n33
*707 mult_52_n32
*708 mult_52_n31
*709 mult_52_n30
*710 mult_52_n29
*711 mult_52_n28
*712 mult_52_n27
*713 mult_52_n26
*714 mult_52_n25
*715 mult_52_n24
*716 mult_52_n23
*717 mult_52_n22
*718 mult_52_n21
*719 mult_52_n20
*720 mult_52_n19
*721 mult_52_n18
*722 mult_52_n17
*723 mult_52_n16
*724 mult_52_n15
*725 mult_52_n14
*726 mult_52_n9
*727 mult_52_n8
*728 mult_52_n7
*729 mult_52_n6
*730 mult_52_n5
*731 mult_52_n4
*732 mult_52_n3
*733 mult_52_n2
*734 add_1_root_add_0_root_add_54_2_n1
*735 add_0_root_add_0_root_add_54_2_n2
*736 mult_47_n208
*737 mult_47_n207
*738 mult_47_n206
*739 mult_47_n205
*740 mult_47_n204
*741 mult_47_n203
*742 mult_47_n202
*743 mult_47_n201
*744 mult_47_n200
*745 mult_47_n199
*746 mult_47_n198
*747 mult_47_n197
*748 mult_47_n196
*749 mult_47_n195
*750 mult_47_n194
*751 mult_47_n193
*752 mult_47_n192
*753 mult_47_n191
*754 mult_47_n190
*755 mult_47_n189
*756 mult_47_n188
*757 mult_47_n187
*758 mult_47_n186
*759 mult_47_n185
*760 mult_47_n184
*761 mult_47_n183
*762 mult_47_n182
*763 mult_47_n138
*764 mult_47_n137
*765 mult_47_n136
*766 mult_47_n135
*767 mult_47_n133
*768 mult_47_n131
*769 mult_47_n130
*770 mult_47_n129
*771 mult_47_n128
*772 mult_47_n127
*773 mult_47_n126
*774 mult_47_n125
*775 mult_47_n123
*776 mult_47_n122
*777 mult_47_n121
*778 mult_47_n120
*779 mult_47_n119
*780 mult_47_n118
*781 mult_47_n117
*782 mult_47_n116
*783 mult_47_n115
*784 mult_47_n114
*785 mult_47_n113
*786 mult_47_n112
*787 mult_47_n111
*788 mult_47_n110
*789 mult_47_n109
*790 mult_47_n108
*791 mult_47_n107
*792 mult_47_n105
*793 mult_47_n104
*794 mult_47_n103
*795 mult_47_n102
*796 mult_47_n101
*797 mult_47_n100
*798 mult_47_n99
*799 mult_47_n98
*800 mult_47_n97
*801 mult_47_n96
*802 mult_47_n95
*803 mult_47_n94
*804 mult_47_n93
*805 mult_47_n92
*806 mult_47_n91
*807 mult_47_n90
*808 mult_47_n89
*809 mult_47_n88
*810 mult_47_n87
*811 mult_47_n85
*812 mult_47_n84
*813 mult_47_n83
*814 mult_47_n82
*815 mult_47_n81
*816 mult_47_n80
*817 mult_47_n79
*818 mult_47_n78
*819 mult_47_n77
*820 mult_47_n76
*821 mult_47_n75
*822 mult_47_n74
*823 mult_47_n73
*824 mult_47_n72
*825 mult_47_n71
*826 mult_47_n70
*827 mult_47_n69
*828 mult_47_n68
*829 mult_47_n67
*830 mult_47_n66
*831 mult_47_n65
*832 mult_47_n64
*833 mult_47_n63
*834 mult_47_n62
*835 mult_47_n61
*836 mult_47_n60
*837 mult_47_n59
*838 mult_47_n58
*839 mult_47_n57
*840 mult_47_n56
*841 mult_47_n55
*842 mult_47_n53
*843 mult_47_n52
*844 mult_47_n51
*845 mult_47_n50
*846 mult_47_n49
*847 mult_47_n48
*848 mult_47_n47
*849 mult_47_n46
*850 mult_47_n45
*851 mult_47_n44
*852 mult_47_n43
*853 mult_47_n42
*854 mult_47_n41
*855 mult_47_n40
*856 mult_47_n39
*857 mult_47_n38
*858 mult_47_n37
*859 mult_47_n36
*860 mult_47_n35
*861 mult_47_n34
*862 mult_47_n33
*863 mult_47_n32
*864 mult_47_n31
*865 mult_47_n30
*866 mult_47_n29
*867 mult_47_n28
*868 mult_47_n27
*869 mult_47_n26
*870 mult_47_n25
*871 mult_47_n24
*872 mult_47_n23
*873 mult_47_n22
*874 mult_47_n21
*875 mult_47_n20
*876 mult_47_n19
*877 mult_47_n18
*878 mult_47_n17
*879 mult_47_n16
*880 mult_47_n15
*881 mult_47_n14
*882 mult_47_n9
*883 mult_47_n8
*884 mult_47_n7
*885 mult_47_n6
*886 mult_47_n5
*887 mult_47_n4
*888 mult_47_n3
*889 mult_47_n2
*890 mult_45_n208
*891 mult_45_n207
*892 mult_45_n206
*893 mult_45_n205
*894 mult_45_n204
*895 mult_45_n203
*896 mult_45_n202
*897 mult_45_n201
*898 mult_45_n200
*899 mult_45_n199
*900 mult_45_n198
*901 mult_45_n197
*902 mult_45_n196
*903 mult_45_n195
*904 mult_45_n194
*905 mult_45_n191
*906 mult_45_n189
*907 mult_45_n187
*908 mult_45_n186
*909 mult_45_n183
*910 mult_45_n138
*911 mult_45_n137
*912 mult_45_n136
*913 mult_45_n135
*914 mult_45_n133
*915 mult_45_n131
*916 mult_45_n130
*917 mult_45_n129
*918 mult_45_n128
*919 mult_45_n127
*920 mult_45_n126
*921 mult_45_n125
*922 mult_45_n123
*923 mult_45_n122
*924 mult_45_n121
*925 mult_45_n120
*926 mult_45_n119
*927 mult_45_n118
*928 mult_45_n117
*929 mult_45_n116
*930 mult_45_n115
*931 mult_45_n114
*932 mult_45_n113
*933 mult_45_n112
*934 mult_45_n111
*935 mult_45_n110
*936 mult_45_n109
*937 mult_45_n108
*938 mult_45_n107
*939 mult_45_n105
*940 mult_45_n104
*941 mult_45_n103
*942 mult_45_n102
*943 mult_45_n101
*944 mult_45_n100
*945 mult_45_n99
*946 mult_45_n98
*947 mult_45_n97
*948 mult_45_n96
*949 mult_45_n95
*950 mult_45_n94
*951 mult_45_n93
*952 mult_45_n92
*953 mult_45_n91
*954 mult_45_n90
*955 mult_45_n89
*956 mult_45_n88
*957 mult_45_n87
*958 mult_45_n85
*959 mult_45_n84
*960 mult_45_n83
*961 mult_45_n82
*962 mult_45_n81
*963 mult_45_n80
*964 mult_45_n79
*965 mult_45_n78
*966 mult_45_n77
*967 mult_45_n76
*968 mult_45_n75
*969 mult_45_n74
*970 mult_45_n73
*971 mult_45_n72
*972 mult_45_n71
*973 mult_45_n70
*974 mult_45_n69
*975 mult_45_n68
*976 mult_45_n67
*977 mult_45_n66
*978 mult_45_n65
*979 mult_45_n64
*980 mult_45_n63
*981 mult_45_n62
*982 mult_45_n61
*983 mult_45_n60
*984 mult_45_n59
*985 mult_45_n58
*986 mult_45_n57
*987 mult_45_n56
*988 mult_45_n55
*989 mult_45_n53
*990 mult_45_n52
*991 mult_45_n51
*992 mult_45_n50
*993 mult_45_n49
*994 mult_45_n48
*995 mult_45_n47
*996 mult_45_n46
*997 mult_45_n45
*998 mult_45_n44
*999 mult_45_n43
*1000 mult_45_n42
*1001 mult_45_n41
*1002 mult_45_n40
*1003 mult_45_n39
*1004 mult_45_n38
*1005 mult_45_n37
*1006 mult_45_n36
*1007 mult_45_n35
*1008 mult_45_n34
*1009 mult_45_n33
*1010 mult_45_n32
*1011 mult_45_n31
*1012 mult_45_n30
*1013 mult_45_n29
*1014 mult_45_n28
*1015 mult_45_n27
*1016 mult_45_n26
*1017 mult_45_n25
*1018 mult_45_n24
*1019 mult_45_n23
*1020 mult_45_n22
*1021 mult_45_n21
*1022 mult_45_n20
*1023 mult_45_n19
*1024 mult_45_n18
*1025 mult_45_n17
*1026 mult_45_n16
*1027 mult_45_n15
*1028 mult_45_n14
*1029 mult_45_n9
*1030 mult_45_n8
*1031 mult_45_n7
*1032 mult_45_n6
*1033 mult_45_n5
*1034 mult_45_n4
*1035 mult_45_n3
*1036 mult_45_n2
*1037 add_1_root_add_0_root_add_48_3_n1
*1038 mult_46_n208
*1039 mult_46_n207
*1040 mult_46_n206
*1041 mult_46_n205
*1042 mult_46_n204
*1043 mult_46_n203
*1044 mult_46_n202
*1045 mult_46_n201
*1046 mult_46_n200
*1047 mult_46_n199
*1048 mult_46_n198
*1049 mult_46_n197
*1050 mult_46_n196
*1051 mult_46_n195
*1052 mult_46_n194
*1053 mult_46_n193
*1054 mult_46_n192
*1055 mult_46_n191
*1056 mult_46_n190
*1057 mult_46_n189
*1058 mult_46_n188
*1059 mult_46_n187
*1060 mult_46_n186
*1061 mult_46_n185
*1062 mult_46_n184
*1063 mult_46_n183
*1064 mult_46_n182
*1065 mult_46_n138
*1066 mult_46_n137
*1067 mult_46_n136
*1068 mult_46_n135
*1069 mult_46_n133
*1070 mult_46_n131
*1071 mult_46_n130
*1072 mult_46_n129
*1073 mult_46_n128
*1074 mult_46_n127
*1075 mult_46_n126
*1076 mult_46_n125
*1077 mult_46_n123
*1078 mult_46_n122
*1079 mult_46_n121
*1080 mult_46_n120
*1081 mult_46_n119
*1082 mult_46_n118
*1083 mult_46_n117
*1084 mult_46_n116
*1085 mult_46_n115
*1086 mult_46_n114
*1087 mult_46_n113
*1088 mult_46_n112
*1089 mult_46_n111
*1090 mult_46_n110
*1091 mult_46_n109
*1092 mult_46_n108
*1093 mult_46_n107
*1094 mult_46_n105
*1095 mult_46_n104
*1096 mult_46_n103
*1097 mult_46_n102
*1098 mult_46_n101
*1099 mult_46_n100
*1100 mult_46_n99
*1101 mult_46_n98
*1102 mult_46_n97
*1103 mult_46_n96
*1104 mult_46_n95
*1105 mult_46_n94
*1106 mult_46_n93
*1107 mult_46_n92
*1108 mult_46_n91
*1109 mult_46_n90
*1110 mult_46_n89
*1111 mult_46_n88
*1112 mult_46_n87
*1113 mult_46_n85
*1114 mult_46_n84
*1115 mult_46_n83
*1116 mult_46_n82
*1117 mult_46_n81
*1118 mult_46_n80
*1119 mult_46_n79
*1120 mult_46_n78
*1121 mult_46_n77
*1122 mult_46_n76
*1123 mult_46_n75
*1124 mult_46_n74
*1125 mult_46_n73
*1126 mult_46_n72
*1127 mult_46_n71
*1128 mult_46_n70
*1129 mult_46_n69
*1130 mult_46_n68
*1131 mult_46_n67
*1132 mult_46_n66
*1133 mult_46_n65
*1134 mult_46_n64
*1135 mult_46_n63
*1136 mult_46_n62
*1137 mult_46_n61
*1138 mult_46_n60
*1139 mult_46_n59
*1140 mult_46_n58
*1141 mult_46_n57
*1142 mult_46_n56
*1143 mult_46_n55
*1144 mult_46_n53
*1145 mult_46_n52
*1146 mult_46_n51
*1147 mult_46_n50
*1148 mult_46_n49
*1149 mult_46_n48
*1150 mult_46_n47
*1151 mult_46_n46
*1152 mult_46_n45
*1153 mult_46_n44
*1154 mult_46_n43
*1155 mult_46_n42
*1156 mult_46_n41
*1157 mult_46_n40
*1158 mult_46_n39
*1159 mult_46_n38
*1160 mult_46_n37
*1161 mult_46_n36
*1162 mult_46_n35
*1163 mult_46_n34
*1164 mult_46_n33
*1165 mult_46_n32
*1166 mult_46_n31
*1167 mult_46_n30
*1168 mult_46_n29
*1169 mult_46_n28
*1170 mult_46_n27
*1171 mult_46_n26
*1172 mult_46_n25
*1173 mult_46_n24
*1174 mult_46_n23
*1175 mult_46_n22
*1176 mult_46_n21
*1177 mult_46_n20
*1178 mult_46_n19
*1179 mult_46_n18
*1180 mult_46_n17
*1181 mult_46_n16
*1182 mult_46_n15
*1183 mult_46_n14
*1184 mult_46_n9
*1185 mult_46_n8
*1186 mult_46_n7
*1187 mult_46_n6
*1188 mult_46_n5
*1189 mult_46_n4
*1190 mult_46_n3
*1191 mult_46_n2
*1192 add_2_root_add_0_root_add_48_3_n1
*1193 add_0_root_add_0_root_add_48_3_n1
*1194 q_reg2[7]
*1195 q_reg2[6]
*1196 q_reg2[5]
*1197 q_reg2[4]
*1198 q_reg2[3]
*1199 q_reg2[2]
*1200 q_reg2[1]
*1201 q_reg2[0]
*1202 q_reg3[7]
*1203 q_reg3[6]
*1204 q_reg3[5]
*1205 q_reg3[4]
*1206 q_reg3[3]
*1207 q_reg3[2]
*1208 q_reg3[1]
*1209 q_reg3[0]
*1210 q_regx[7]
*1211 q_regx[6]
*1212 q_regx[5]
*1213 q_regx[4]
*1214 q_regx[3]
*1215 q_regx[2]
*1216 q_regx[1]
*1217 q_regx[0]
*1218 TMPa[7]
*1219 TMPa[6]
*1220 TMPa[5]
*1221 TMPa[4]
*1222 TMPa[3]
*1223 TMPa[2]
*1224 TMPa[1]
*1225 TMPa[0]
*1226 q_reg1[7]
*1227 q_reg1[6]
*1228 q_reg1[5]
*1229 q_reg1[4]
*1230 q_reg1[3]
*1231 q_reg1[2]
*1232 q_reg1[1]
*1233 q_reg1[0]
*1234 TMPb[7]
*1235 TMPb[6]
*1236 TMPb[5]
*1237 TMPb[4]
*1238 TMPb[3]
*1239 TMPb[2]
*1240 TMPb[1]
*1241 TMPb[0]
*1242 add_1_root_add_0_root_add_54_2_carry[7]
*1243 add_1_root_add_0_root_add_54_2_carry[6]
*1244 add_1_root_add_0_root_add_54_2_carry[5]
*1245 add_1_root_add_0_root_add_54_2_carry[4]
*1246 add_1_root_add_0_root_add_54_2_carry[3]
*1247 add_1_root_add_0_root_add_54_2_carry[2]
*1248 add_0_root_add_0_root_add_54_2_carry[7]
*1249 add_0_root_add_0_root_add_54_2_carry[6]
*1250 add_0_root_add_0_root_add_54_2_carry[5]
*1251 add_0_root_add_0_root_add_54_2_carry[4]
*1252 add_0_root_add_0_root_add_54_2_carry[3]
*1253 add_0_root_add_0_root_add_54_2_carry[2]
*1254 add_1_root_add_0_root_add_48_3_carry[7]
*1255 add_1_root_add_0_root_add_48_3_carry[6]
*1256 add_1_root_add_0_root_add_48_3_carry[5]
*1257 add_1_root_add_0_root_add_48_3_carry[4]
*1258 add_1_root_add_0_root_add_48_3_carry[3]
*1259 add_1_root_add_0_root_add_48_3_carry[2]
*1260 add_2_root_add_0_root_add_48_3_carry[7]
*1261 add_2_root_add_0_root_add_48_3_carry[6]
*1262 add_2_root_add_0_root_add_48_3_carry[5]
*1263 add_2_root_add_0_root_add_48_3_carry[4]
*1264 add_2_root_add_0_root_add_48_3_carry[3]
*1265 add_2_root_add_0_root_add_48_3_carry[2]
*1266 add_0_root_add_0_root_add_48_3_carry[7]
*1267 add_0_root_add_0_root_add_48_3_carry[6]
*1268 add_0_root_add_0_root_add_48_3_carry[5]
*1269 add_0_root_add_0_root_add_48_3_carry[4]
*1270 add_0_root_add_0_root_add_48_3_carry[3]
*1271 add_0_root_add_0_root_add_48_3_carry[2]
*1272 dout[0]
*1273 FE_OFC0_vin
*1274 FE_RC_0_0
*1275 FE_DBTC6_q_reg2_0
*1276 FE_DBTC5_q_reg2_1
*1277 FE_DBTC4_q_reg2_2
*1278 FE_DBTC3_q_reg2_3
*1279 FE_DBTC2_q_reg2_4
*1280 FE_DBTC1_q_reg2_5
*1281 FE_DBTC0_q_reg2_6
*1282 reg_x_U19
*1283 reg_x_U18
*1284 reg_x_U17
*1285 reg_x_U16
*1286 reg_x_U15
*1287 reg_x_U14
*1288 reg_x_U13
*1289 reg_x_U12
*1290 reg_x_U11
*1291 reg_x_U10
*1292 reg_x_U9
*1293 reg_x_U8
*1294 reg_x_U7
*1295 reg_x_U6
*1296 reg_x_U5
*1297 reg_x_U4
*1298 reg_x_Q_reg_0_
*1299 reg_x_Q_reg_1_
*1300 reg_x_Q_reg_2_
*1301 reg_x_Q_reg_3_
*1302 reg_x_Q_reg_4_
*1303 reg_x_Q_reg_5_
*1304 reg_x_Q_reg_6_
*1305 reg_x_Q_reg_7_
*1306 reg_1_U17
*1307 reg_1_U16
*1308 reg_1_U15
*1309 reg_1_U14
*1310 reg_1_U13
*1311 reg_1_U12
*1312 reg_1_U11
*1313 reg_1_U10
*1314 reg_1_U9
*1315 reg_1_U8
*1316 reg_1_U7
*1317 reg_1_U6
*1318 reg_1_U5
*1319 reg_1_U4
*1320 reg_1_U3
*1321 reg_1_U2
*1322 reg_1_Q_reg_0_
*1323 reg_1_Q_reg_1_
*1324 reg_1_Q_reg_2_
*1325 reg_1_Q_reg_3_
*1326 reg_1_Q_reg_4_
*1327 reg_1_Q_reg_5_
*1328 reg_1_Q_reg_6_
*1329 reg_1_Q_reg_7_
*1330 reg_2_U19
*1331 reg_2_U18
*1332 reg_2_U17
*1333 reg_2_U16
*1334 reg_2_U15
*1335 reg_2_U14
*1336 reg_2_U13
*1337 reg_2_U12
*1338 reg_2_U11
*1339 reg_2_U10
*1340 reg_2_U9
*1341 reg_2_U8
*1342 reg_2_U7
*1343 reg_2_U6
*1344 reg_2_U5
*1345 reg_2_U4
*1346 reg_2_Q_reg_0_
*1347 reg_2_Q_reg_1_
*1348 reg_2_Q_reg_2_
*1349 reg_2_Q_reg_3_
*1350 reg_2_Q_reg_4_
*1351 reg_2_Q_reg_5_
*1352 reg_2_Q_reg_6_
*1353 reg_2_Q_reg_7_
*1354 reg_3_U19
*1355 reg_3_U18
*1356 reg_3_U17
*1357 reg_3_U16
*1358 reg_3_U15
*1359 reg_3_U14
*1360 reg_3_U13
*1361 reg_3_U12
*1362 reg_3_U11
*1363 reg_3_U10
*1364 reg_3_U9
*1365 reg_3_U8
*1366 reg_3_U7
*1367 reg_3_U6
*1368 reg_3_U5
*1369 reg_3_U4
*1370 reg_3_Q_reg_0_
*1371 reg_3_Q_reg_1_
*1372 reg_3_Q_reg_2_
*1373 reg_3_Q_reg_3_
*1374 reg_3_Q_reg_4_
*1375 reg_3_Q_reg_5_
*1376 reg_3_Q_reg_6_
*1377 reg_3_Q_reg_7_
*1378 reg_dout_U17
*1379 reg_dout_U16
*1380 reg_dout_U15
*1381 reg_dout_U14
*1382 reg_dout_U13
*1383 reg_dout_U12
*1384 reg_dout_U11
*1385 reg_dout_U10
*1386 reg_dout_U9
*1387 reg_dout_U8
*1388 reg_dout_U7
*1389 reg_dout_U6
*1390 reg_dout_U5
*1391 reg_dout_U4
*1392 reg_dout_U3
*1393 reg_dout_U2
*1394 reg_dout_Q_reg_0_
*1395 reg_dout_Q_reg_1_
*1396 reg_dout_Q_reg_2_
*1397 reg_dout_Q_reg_3_
*1398 reg_dout_Q_reg_4_
*1399 reg_dout_Q_reg_5_
*1400 reg_dout_Q_reg_6_
*1401 reg_dout_Q_reg_7_
*1402 ff_1_U3
*1403 ff_1_Q_reg
*1404 mult_50_U203
*1405 mult_50_U202
*1406 mult_50_U201
*1407 mult_50_U200
*1408 mult_50_U199
*1409 mult_50_U198
*1410 mult_50_U197
*1411 mult_50_U196
*1412 mult_50_U195
*1413 mult_50_U194
*1414 mult_50_U193
*1415 mult_50_U192
*1416 mult_50_U191
*1417 mult_50_U190
*1418 mult_50_U189
*1419 mult_50_U188
*1420 mult_50_U187
*1421 mult_50_U186
*1422 mult_50_U185
*1423 mult_50_U184
*1424 mult_50_U183
*1425 mult_50_U182
*1426 mult_50_U181
*1427 mult_50_U180
*1428 mult_50_U179
*1429 mult_50_U178
*1430 mult_50_U177
*1431 mult_50_U176
*1432 mult_50_U175
*1433 mult_50_U174
*1434 mult_50_U173
*1435 mult_50_U172
*1436 mult_50_U171
*1437 mult_50_U170
*1438 mult_50_U169
*1439 mult_50_U168
*1440 mult_50_U167
*1441 mult_50_U166
*1442 mult_50_U165
*1443 mult_50_U164
*1444 mult_50_U163
*1445 mult_50_U162
*1446 mult_50_U161
*1447 mult_50_U160
*1448 mult_50_U159
*1449 mult_50_U158
*1450 mult_50_U157
*1451 mult_50_U156
*1452 mult_50_U155
*1453 mult_50_U154
*1454 mult_50_U153
*1455 mult_50_U152
*1456 mult_50_U151
*1457 mult_50_U150
*1458 mult_50_U149
*1459 mult_50_U148
*1460 mult_50_U147
*1461 mult_50_U146
*1462 mult_50_U145
*1463 mult_50_U144
*1464 mult_50_U143
*1465 mult_50_U142
*1466 mult_50_U141
*1467 mult_50_U140
*1468 mult_50_U139
*1469 mult_50_U138
*1470 mult_50_U137
*1471 mult_50_U136
*1472 mult_50_U135
*1473 mult_50_U134
*1474 mult_50_U133
*1475 mult_50_U132
*1476 mult_50_U131
*1477 mult_50_U130
*1478 mult_50_U129
*1479 mult_50_U128
*1480 mult_50_U127
*1481 mult_50_U126
*1482 mult_50_U125
*1483 mult_50_U124
*1484 mult_50_U51
*1485 mult_50_U50
*1486 mult_50_U49
*1487 mult_50_U48
*1488 mult_50_U47
*1489 mult_50_U46
*1490 mult_50_U45
*1491 mult_50_U44
*1492 mult_50_U43
*1493 mult_50_U42
*1494 mult_50_U39
*1495 mult_50_U38
*1496 mult_50_U37
*1497 mult_50_U36
*1498 mult_50_U34
*1499 mult_50_U33
*1500 mult_50_U32
*1501 mult_50_U31
*1502 mult_50_U30
*1503 mult_50_U29
*1504 mult_50_U28
*1505 mult_50_U27
*1506 mult_50_U26
*1507 mult_50_U25
*1508 mult_50_U24
*1509 mult_50_U23
*1510 mult_50_U22
*1511 mult_50_U21
*1512 mult_50_U20
*1513 mult_50_U19
*1514 mult_50_U18
*1515 mult_50_U17
*1516 mult_50_U16
*1517 mult_50_U15
*1518 mult_50_U9
*1519 mult_50_U8
*1520 mult_50_U7
*1521 mult_50_U6
*1522 mult_50_U5
*1523 mult_50_U4
*1524 mult_50_U3
*1525 mult_51_U203
*1526 mult_51_U202
*1527 mult_51_U201
*1528 mult_51_U200
*1529 mult_51_U199
*1530 mult_51_U198
*1531 mult_51_U197
*1532 mult_51_U196
*1533 mult_51_U195
*1534 mult_51_U194
*1535 mult_51_U193
*1536 mult_51_U192
*1537 mult_51_U191
*1538 mult_51_U190
*1539 mult_51_U189
*1540 mult_51_U188
*1541 mult_51_U187
*1542 mult_51_U186
*1543 mult_51_U185
*1544 mult_51_U184
*1545 mult_51_U183
*1546 mult_51_U182
*1547 mult_51_U181
*1548 mult_51_U180
*1549 mult_51_U179
*1550 mult_51_U178
*1551 mult_51_U177
*1552 mult_51_U176
*1553 mult_51_U175
*1554 mult_51_U174
*1555 mult_51_U173
*1556 mult_51_U172
*1557 mult_51_U171
*1558 mult_51_U170
*1559 mult_51_U169
*1560 mult_51_U168
*1561 mult_51_U167
*1562 mult_51_U166
*1563 mult_51_U165
*1564 mult_51_U164
*1565 mult_51_U163
*1566 mult_51_U162
*1567 mult_51_U161
*1568 mult_51_U160
*1569 mult_51_U159
*1570 mult_51_U158
*1571 mult_51_U157
*1572 mult_51_U156
*1573 mult_51_U155
*1574 mult_51_U154
*1575 mult_51_U153
*1576 mult_51_U152
*1577 mult_51_U151
*1578 mult_51_U150
*1579 mult_51_U149
*1580 mult_51_U148
*1581 mult_51_U147
*1582 mult_51_U146
*1583 mult_51_U145
*1584 mult_51_U144
*1585 mult_51_U143
*1586 mult_51_U142
*1587 mult_51_U141
*1588 mult_51_U140
*1589 mult_51_U139
*1590 mult_51_U138
*1591 mult_51_U137
*1592 mult_51_U136
*1593 mult_51_U135
*1594 mult_51_U134
*1595 mult_51_U133
*1596 mult_51_U132
*1597 mult_51_U131
*1598 mult_51_U130
*1599 mult_51_U129
*1600 mult_51_U128
*1601 mult_51_U127
*1602 mult_51_U126
*1603 mult_51_U125
*1604 mult_51_U124
*1605 mult_51_U51
*1606 mult_51_U50
*1607 mult_51_U49
*1608 mult_51_U48
*1609 mult_51_U47
*1610 mult_51_U46
*1611 mult_51_U45
*1612 mult_51_U44
*1613 mult_51_U43
*1614 mult_51_U42
*1615 mult_51_U39
*1616 mult_51_U38
*1617 mult_51_U37
*1618 mult_51_U36
*1619 mult_51_U34
*1620 mult_51_U33
*1621 mult_51_U32
*1622 mult_51_U31
*1623 mult_51_U30
*1624 mult_51_U29
*1625 mult_51_U28
*1626 mult_51_U27
*1627 mult_51_U26
*1628 mult_51_U25
*1629 mult_51_U24
*1630 mult_51_U23
*1631 mult_51_U22
*1632 mult_51_U21
*1633 mult_51_U20
*1634 mult_51_U19
*1635 mult_51_U18
*1636 mult_51_U17
*1637 mult_51_U16
*1638 mult_51_U15
*1639 mult_51_U9
*1640 mult_51_U8
*1641 mult_51_U7
*1642 mult_51_U6
*1643 mult_51_U5
*1644 mult_51_U4
*1645 mult_51_U3
*1646 mult_52_U203
*1647 mult_52_U202
*1648 mult_52_U201
*1649 mult_52_U200
*1650 mult_52_U199
*1651 mult_52_U198
*1652 mult_52_U197
*1653 mult_52_U196
*1654 mult_52_U195
*1655 mult_52_U194
*1656 mult_52_U193
*1657 mult_52_U192
*1658 mult_52_U191
*1659 mult_52_U190
*1660 mult_52_U189
*1661 mult_52_U188
*1662 mult_52_U187
*1663 mult_52_U186
*1664 mult_52_U185
*1665 mult_52_U184
*1666 mult_52_U183
*1667 mult_52_U182
*1668 mult_52_U181
*1669 mult_52_U180
*1670 mult_52_U179
*1671 mult_52_U178
*1672 mult_52_U177
*1673 mult_52_U176
*1674 mult_52_U175